final/Texas2k_series24_cases_with_dynamics/Texas2k_series24_case1_2016summerpeak/Texas2k_series24_case1_2016summerPeak.m
% Case saved by PowerWorld Simulator, version 23, build date October 25, 2023
% Case Information Header = 9 lines
% Texas2k_series24_case1_2016summerPeak
% This is a synthetic power system model that does NOT represent the actual grid. 
% It was developed at Texas A&M University and contains no CEII.
% [1] A.B. Birchfield, T. Xu, K.M. Gegner, K.S. Shetye, and T.J. Overbye,
%  "Grid Structural Characteristics as Validation Criteria for Synthetic Networks,"
%  IEEE Transactions on Power Systems, vol. 32, no. 4, pp. 3258-3265, July 2017.
% [2] J. Baek and A. B. Birchfield, “A tuning method for exciters and governors 
%  in realistic synthetic grids with dynamics,” 2023 North American Power 
%  Symposium (NAPS), Asheville, NC, USA, Oct. 2023, pp. 1-6.
function mpc = Texas2k_series24_case1_2016summerPeak
mpc.version = '2';
mpc.baseMVA =  100.00;

%% bus data 
mpc.bus = [
1001	1	20.78	5.89	0.00	0.00	1	0.9879869	-27.028888	115.00	9	1.100	0.900	18.66	-0.00	0	0
1002	1	15.41	4.37	0.00	0.00	1	1.0228016	-21.724051	115.00	9	1.100	0.900	18.66	0.00	0	0
1003	1	0.00	0.00	0.00	0.00	1	1.0127939	-24.419337	115.00	9	1.100	0.900	18.66	-0.00	0	0
1004	2	0.00	0.00	0.00	0.00	1	1.0191599	-25.993670	230.00	9	1.100	0.900	18.66	-0.00	0	0
1005	1	0.00	0.00	0.00	0.00	1	1.0107155	-20.532086	115.00	9	1.100	0.900	18.66	-0.00	0	0
1006	2	0.00	0.00	0.00	0.00	1	1.0043101	-18.378849	13.80	9	1.100	0.900	18.66	-0.00	0	0
1007	1	7.01	1.99	0.00	0.16	1	1.0300000	-22.183263	115.00	9	1.100	0.900	18.66	0.00	0	0
1008	1	0.00	0.00	0.00	0.00	1	1.0250323	-11.873061	115.00	9	1.100	0.900	18.66	-0.00	0	0
1009	2	0.00	0.00	0.00	0.00	1	1.0150640	-8.614772	13.80	9	1.100	0.900	18.66	-0.00	0	0
1010	1	0.00	0.00	0.00	-2.12	1	1.0300000	-20.424029	115.00	9	1.100	0.900	18.66	0.00	0	0
1011	2	0.00	0.00	0.00	0.00	1	1.0302178	-18.671067	22.00	9	1.100	0.900	18.66	-0.00	0	0
1012	1	2.99	0.85	0.00	9.50	1	1.0227089	-27.342484	115.00	9	1.100	0.900	18.66	-0.00	0	0
1013	1	29.23	8.28	0.00	0.00	1	1.0091400	-19.327769	115.00	9	1.100	0.900	18.66	-0.00	0	0
1014	1	2.22	0.63	0.00	0.00	1	1.0155621	-15.631202	115.00	9	1.100	0.900	18.66	-0.00	0	0
1015	1	7.51	2.13	0.00	0.00	1	1.0319320	-21.870218	115.00	9	1.100	0.900	18.66	0.00	0	0
1016	1	2.89	0.82	0.00	30.00	1	1.0190257	-19.669285	115.00	9	1.100	0.900	18.66	0.00	0	0
1017	1	18.34	5.20	0.00	0.00	1	0.9874717	-25.628350	115.00	9	1.100	0.900	18.66	-0.00	0	0
1018	1	0.07	0.02	0.00	0.00	1	0.9947723	-24.342385	115.00	9	1.100	0.900	18.66	-0.00	0	0
1019	1	61.78	17.50	0.00	142.98	1	1.0078981	-26.618369	115.00	9	1.100	0.900	18.66	0.00	0	0
1020	1	0.00	0.00	0.00	76.73	1	1.0275954	-19.654093	115.00	9	1.100	0.900	18.66	-0.00	0	0
1021	2	0.00	0.00	0.00	0.00	1	1.0033711	-13.091942	13.80	9	1.100	0.900	18.66	-0.00	0	0
1022	1	0.00	0.00	0.00	0.00	1	1.0149933	-23.693132	115.00	9	1.100	0.900	18.66	-0.00	0	0
1023	2	0.00	0.00	0.00	0.00	1	1.0100000	-14.804833	13.80	9	1.100	0.900	18.66	0.00	0	0
1024	1	63.04	17.86	0.00	0.00	1	0.9962492	-23.286901	115.00	9	1.100	0.900	18.66	-0.00	0	0
1025	1	0.00	0.00	0.00	0.00	1	1.0223351	-18.608299	115.00	9	1.100	0.900	18.66	-0.00	0	0
1026	2	0.00	0.00	0.00	0.00	1	1.0000000	-9.128160	13.80	9	1.100	0.900	18.66	0.00	0	0
1027	1	101.21	28.68	0.00	75.00	1	1.0157890	-30.270560	115.00	9	1.100	0.900	18.66	0.00	0	0
1028	1	10.01	2.84	0.00	0.00	1	1.0174343	-25.555834	115.00	9	1.100	0.900	18.66	-0.00	0	0
1029	1	83.18	23.57	0.00	40.00	1	1.0108912	-29.250108	115.00	9	1.100	0.900	18.66	0.00	0	0
1030	1	24.63	6.98	0.00	0.00	1	1.0182254	-16.923726	115.00	9	1.100	0.900	18.66	-0.00	0	0
1031	1	9.25	2.62	0.00	0.00	1	1.0190040	-21.470777	115.00	9	1.100	0.900	18.66	-0.00	0	0
1032	1	0.00	0.00	0.00	0.00	1	1.0075587	-15.704379	115.00	9	1.100	0.900	18.66	-0.00	0	0
1033	2	0.00	0.00	0.00	50.00	1	1.0283928	-20.234456	230.00	9	1.100	0.900	18.66	-0.00	0	0
1034	1	0.00	0.00	0.00	0.00	1	1.0066511	-18.665372	115.00	9	1.100	0.900	18.66	-0.00	0	0
1035	2	0.00	0.00	0.00	0.00	1	1.0000000	-15.376151	13.80	9	1.100	0.900	18.66	0.00	0	0
1036	1	13.60	3.85	0.00	0.00	1	1.0011162	-16.085111	115.00	9	1.100	0.900	18.66	-0.00	0	0
1037	1	102.24	28.97	0.00	0.00	1	0.9814857	-26.780331	115.00	9	1.100	0.900	18.66	-0.00	0	0
1038	1	0.00	0.00	0.00	0.00	1	1.0202992	-11.075006	115.00	9	1.100	0.900	18.66	-0.00	0	0
1039	2	0.00	0.00	0.00	0.00	1	1.0000000	-5.706264	22.00	9	1.100	0.900	18.66	0.00	0	0
1040	1	44.36	12.57	0.00	0.00	1	0.9972722	-24.620749	115.00	9	1.100	0.900	18.66	-0.00	0	0
1041	1	0.00	0.00	0.00	0.00	1	1.0051151	-19.550961	115.00	9	1.100	0.900	18.66	-0.00	0	0
1042	2	0.00	0.00	0.00	0.00	1	1.0051151	-19.550961	13.80	9	1.100	0.900	18.66	-0.00	0	0
1043	2	0.00	0.00	0.00	0.00	1	1.0000000	-16.313968	13.80	9	1.100	0.900	18.66	0.00	0	0
1044	1	14.68	4.16	0.00	0.00	1	1.0160541	-30.223109	115.00	9	1.100	0.900	18.66	-0.00	0	0
1045	1	98.56	27.93	0.00	0.00	1	0.9863398	-28.746488	115.00	9	1.100	0.900	18.66	-0.00	0	0
1046	1	11.08	3.14	0.00	12.00	1	1.0283820	-25.402651	115.00	9	1.100	0.900	18.66	-0.00	0	0
1047	1	0.00	0.00	0.00	0.00	1	1.0080761	-17.259792	115.00	9	1.100	0.900	18.66	-0.00	0	0
1048	2	0.00	0.00	0.00	0.00	1	1.0080761	-17.259792	18.00	9	1.100	0.900	18.66	-0.00	0	0
1049	2	0.00	0.00	0.00	0.00	1	1.0080761	-17.259792	18.00	9	1.100	0.900	18.66	-0.00	0	0
1050	2	0.00	0.00	0.00	0.00	1	1.0000000	-12.189549	18.00	9	1.100	0.900	18.66	0.00	0	0
1051	2	0.00	0.00	0.00	0.00	1	1.0000000	-10.710216	18.00	9	1.100	0.900	18.66	0.00	0	0
1052	2	0.00	0.00	0.00	0.00	1	1.0004415	-13.040015	18.00	9	1.100	0.900	18.66	-0.00	0	0
1053	2	0.00	0.00	0.00	0.00	1	1.0255978	-21.144074	230.00	9	1.100	0.900	18.66	-0.00	0	0
1054	1	14.99	4.25	0.00	0.00	1	1.0139648	-27.410786	115.00	9	1.100	0.900	18.66	-0.00	0	0
1055	1	3.98	1.13	0.00	0.00	1	1.0060545	-25.239817	115.00	9	1.100	0.900	18.66	-0.00	0	0
1056	1	0.00	0.00	0.00	67.82	1	1.0300000	-26.436619	115.00	9	1.100	0.900	18.66	0.00	0	0
1057	2	0.00	0.00	0.00	0.00	1	1.0300000	-26.436619	18.00	9	1.100	0.900	18.66	0.00	0	0
1058	1	13.46	3.81	0.00	0.00	1	1.0262987	-14.337820	115.00	9	1.100	0.900	18.66	-0.00	0	0
1059	2	0.00	0.00	0.00	0.00	1	1.0262987	-14.337820	22.00	9	1.100	0.900	18.66	-0.00	0	0
1060	2	0.00	0.00	0.00	0.00	1	1.0262987	-14.337820	22.00	9	1.100	0.900	18.66	-0.00	0	0
1061	1	0.00	0.00	0.00	0.00	1	1.0125285	-21.689421	115.00	9	1.100	0.900	18.66	-0.00	0	0
1062	2	0.00	0.00	0.00	0.00	1	1.0125285	-21.689421	13.80	9	1.100	0.900	18.66	-0.00	0	0
1063	2	0.00	0.00	0.00	0.00	1	1.0125285	-21.689421	13.80	9	1.100	0.900	18.66	-0.00	0	0
1064	1	123.76	35.07	0.00	0.00	1	0.9807636	-28.433740	115.00	9	1.100	0.900	18.66	-0.00	0	0
1065	1	0.00	0.00	0.00	0.00	1	1.0079490	-19.410666	115.00	9	1.100	0.900	18.66	-0.00	0	0
1066	2	0.00	0.00	0.00	0.00	1	1.0000000	-11.896117	13.80	9	1.100	0.900	18.66	0.00	0	0
1067	1	101.55	28.77	0.00	0.00	1	1.0021318	-20.100520	115.00	9	1.100	0.900	18.66	-0.00	0	0
1068	1	59.40	16.83	0.00	0.00	1	0.9875155	-20.385443	115.00	9	1.100	0.900	18.66	-0.00	0	0
1069	1	0.00	0.00	0.00	0.00	1	1.0278268	-11.940303	115.00	9	1.100	0.900	18.66	-0.00	0	0
1070	2	0.00	0.00	0.00	0.00	1	1.0400000	-7.447125	13.80	9	1.100	0.900	18.66	0.00	0	0
1071	1	91.46	25.91	0.00	0.00	1	0.9954203	-25.780791	115.00	9	1.100	0.900	18.66	0.00	0	0
1072	2	0.00	0.00	0.00	0.00	1	1.0100000	-16.439726	18.00	9	1.100	0.900	18.66	0.00	0	0
1073	2	0.00	0.00	0.00	0.00	1	1.0100000	-10.062363	18.00	9	1.100	0.900	18.66	0.00	0	0
1074	2	0.00	0.00	0.00	0.00	1	1.0100000	-12.100634	18.00	9	1.100	0.900	18.66	0.00	0	0
1075	2	0.00	0.00	0.00	0.00	1	1.0100000	-14.856442	18.00	9	1.100	0.900	18.66	0.00	0	0
1076	2	0.00	0.00	0.00	0.00	1	0.9954203	-25.780791	18.00	9	1.100	0.900	18.66	0.00	0	0
1077	2	0.00	0.00	0.00	0.00	1	0.9954203	-25.780791	18.00	9	1.100	0.900	18.66	0.00	0	0
1078	2	0.00	0.00	0.00	0.00	1	1.0100000	-15.377262	18.00	9	1.100	0.900	18.66	0.00	0	0
1079	2	0.00	0.00	0.00	0.00	1	1.0432981	-42.784342	500.00	9	1.100	0.900	18.66	0.00	0	0
1080	2	0.00	0.00	0.00	0.00	1	1.0100000	-14.788937	18.00	9	1.100	0.900	18.66	0.00	0	0
1081	2	0.00	0.00	0.00	67.43	1	1.0300000	-22.463135	230.00	9	1.100	0.900	18.66	0.00	0	0
1082	2	0.00	0.00	0.00	0.00	1	1.0236910	-9.280747	115.00	9	1.100	0.900	18.66	-0.00	0	0
1083	1	39.95	11.32	0.00	26.15	1	1.0227288	-13.374476	115.00	9	1.100	0.900	18.66	-0.00	0	0
1084	2	0.00	0.00	0.00	0.00	1	1.0304041	-20.870535	115.00	9	1.100	0.900	18.66	-0.00	0	0
1085	1	21.30	6.03	0.00	0.00	1	1.0111106	-19.280974	115.00	9	1.100	0.900	18.66	-0.00	0	0
1086	1	39.67	11.24	0.00	30.00	1	1.0181627	-21.491245	115.00	9	1.100	0.900	18.66	0.00	0	0
1087	1	0.91	0.26	0.00	9.36	1	1.0300000	-19.031253	115.00	9	1.100	0.900	18.66	0.00	0	0
1088	2	0.00	0.00	0.00	0.00	1	1.0000000	-15.575647	115.00	9	1.100	0.900	18.66	0.00	0	0
1089	1	40.60	11.50	0.00	0.00	1	0.9879565	-27.672163	115.00	9	1.100	0.900	18.66	-0.00	0	0
1090	2	0.00	0.00	0.00	0.00	1	1.0200000	-20.188830	115.00	9	1.100	0.900	18.66	0.00	0	0
1091	1	11.62	3.29	0.00	0.00	1	1.0289178	-40.312553	161.00	9	1.100	0.900	18.66	-0.00	0	0
2001	1	48.36	13.70	0.00	0.00	2	1.0063446	-61.119679	161.00	11	1.100	0.900	18.66	-0.00	0	0
2002	1	0.00	0.00	0.00	0.00	2	1.0165446	-62.226702	500.00	11	1.100	0.900	18.66	-0.00	0	0
2003	1	0.00	0.00	0.00	0.00	2	1.0154076	-64.426304	161.00	11	1.100	0.900	18.66	-0.00	0	0
2004	2	0.00	0.00	0.00	0.00	2	1.0165446	-62.226702	13.80	11	1.100	0.900	18.66	-0.00	0	0
2005	2	0.00	0.00	0.00	0.00	2	1.0165446	-62.226702	13.80	11	1.100	0.900	18.66	-0.00	0	0
2006	2	0.00	0.00	0.00	0.00	2	1.0165446	-62.226702	13.80	11	1.100	0.900	18.66	-0.00	0	0
2007	1	9.54	2.70	0.00	0.00	2	1.0075328	-60.863955	161.00	11	1.100	0.900	18.66	-0.00	0	0
2008	1	8.06	2.28	0.00	0.00	2	1.0196820	-41.302178	161.00	10	1.100	0.900	18.66	-0.00	0	0
2009	1	39.14	11.09	0.00	106.23	2	1.0300000	-50.671617	161.00	11	1.100	0.900	18.66	0.00	0	0
2010	1	56.81	16.09	0.00	29.37	2	1.0300000	-42.994326	161.00	10	1.100	0.900	18.66	0.00	0	0
2011	1	0.00	0.00	0.00	0.00	2	1.0412980	-39.954410	500.00	10	1.100	0.900	18.66	-0.00	0	0
2012	1	0.00	0.00	0.00	0.00	2	1.0304518	-37.959144	161.00	10	1.100	0.900	18.66	-0.00	0	0
2013	2	0.00	0.00	0.00	0.00	2	1.0329618	-37.625462	18.00	10	1.100	0.900	18.66	-0.00	0	0
2014	1	25.43	7.20	0.00	0.00	2	1.0183281	-42.106502	161.00	10	1.100	0.900	18.66	-0.00	0	0
2015	1	4.69	1.33	0.00	0.00	2	1.0166787	-64.477567	161.00	11	1.100	0.900	18.66	-0.00	0	0
2016	1	69.27	19.63	0.00	0.00	2	1.0153029	-70.265696	161.00	11	1.100	0.900	18.66	0.00	0	0
2017	1	0.00	0.00	0.00	-200.00	2	1.0333096	-41.116245	500.00	10	1.100	0.900	18.66	-0.00	0	0
2018	1	0.00	0.00	0.00	0.00	2	1.0300567	-40.070391	161.00	10	1.100	0.900	18.66	-0.00	0	0
2019	2	0.00	0.00	0.00	0.00	2	1.0333096	-41.116245	20.00	10	1.100	0.900	18.66	-0.00	0	0
2020	1	47.97	13.59	0.00	0.00	2	1.0085925	-50.361954	161.00	11	1.100	0.900	18.66	-0.00	0	0
2021	1	0.00	0.00	0.00	0.00	2	1.0179498	-57.943246	500.00	11	1.100	0.900	18.66	-0.00	0	0
2022	1	11.56	3.28	0.00	0.00	2	1.0144047	-59.805212	161.00	11	1.100	0.900	18.66	-0.00	0	0
2023	2	0.00	0.00	0.00	0.00	2	1.0200000	-56.378644	13.80	11	1.100	0.900	18.66	0.00	0	0
2024	2	0.00	0.00	0.00	0.00	2	1.0200000	-55.714238	13.80	11	1.100	0.900	18.66	0.00	0	0
2025	1	39.62	11.23	0.00	0.00	2	1.0065849	-49.673167	161.00	11	1.100	0.900	18.66	-0.00	0	0
2026	1	18.57	5.26	0.00	0.00	2	1.0295130	-38.988721	161.00	10	1.100	0.900	18.66	-0.00	0	0
2027	1	3.55	1.01	0.00	0.00	2	1.0069461	-61.526367	161.00	11	1.100	0.900	18.66	-0.00	0	0
2028	1	14.24	4.03	0.00	0.00	2	1.0087464	-52.262982	161.00	11	1.100	0.900	18.66	-0.00	0	0
2029	1	3.20	0.91	0.00	0.00	2	1.0240521	-41.668255	161.00	10	1.100	0.900	18.66	-0.00	0	0
2030	1	47.15	13.36	0.00	0.00	2	0.9943555	-64.841957	161.00	11	1.100	0.900	18.66	-0.00	0	0
2031	1	5.77	1.63	0.00	0.00	2	1.0249727	-36.896064	161.00	10	1.100	0.900	18.66	-0.00	0	0
2032	1	3.35	0.95	0.00	0.00	2	1.0094434	-60.295276	161.00	11	1.100	0.900	18.66	-0.00	0	0
2033	1	13.57	3.85	0.00	0.00	2	0.9970076	-66.189414	161.00	11	1.100	0.900	18.66	-0.00	0	0
2034	1	5.34	1.51	0.00	0.00	2	1.0130628	-69.668943	161.00	11	1.100	0.900	18.66	-0.00	0	0
2035	1	4.68	1.33	0.00	0.00	2	1.0223479	-36.804766	161.00	10	1.100	0.900	18.66	-0.00	0	0
2036	1	41.59	11.78	0.00	0.00	2	1.0112051	-50.053434	161.00	11	1.100	0.900	18.66	-0.00	0	0
2037	1	3.50	0.99	0.00	0.00	2	1.0269166	-64.731157	161.00	11	1.100	0.900	18.66	-0.00	0	0
2038	1	2.60	0.74	0.00	0.00	2	1.0124444	-64.888672	161.00	11	1.100	0.900	18.66	-0.00	0	0
2039	1	5.56	1.58	0.00	0.00	2	1.0025344	-62.101522	161.00	11	1.100	0.900	18.66	-0.00	0	0
2040	1	15.90	4.51	0.00	0.00	2	1.0120471	-60.472514	161.00	11	1.100	0.900	18.66	-0.00	0	0
2041	1	0.00	0.00	0.00	0.00	2	1.0313592	-35.766801	161.00	10	1.100	0.900	18.66	-0.00	0	0
2042	2	0.00	0.00	0.00	0.00	2	1.0228008	-33.208347	18.00	10	1.100	0.900	18.66	-0.00	0	0
2043	1	4.24	1.20	0.00	0.00	2	1.0138479	-69.943984	161.00	11	1.100	0.900	18.66	-0.00	0	0
2044	1	27.40	7.76	0.00	0.00	2	1.0215463	-66.025909	161.00	11	1.100	0.900	18.66	-0.00	0	0
2045	1	22.61	6.40	0.00	0.00	2	1.0080800	-50.804503	161.00	11	1.100	0.900	18.66	-0.00	0	0
2046	1	22.13	6.27	0.00	0.00	2	1.0126043	-69.316937	161.00	11	1.100	0.900	18.66	-0.00	0	0
2047	1	14.96	4.24	0.00	0.00	2	1.0142703	-65.302372	161.00	11	1.100	0.900	18.66	-0.00	0	0
2048	1	6.42	1.82	0.00	0.00	2	1.0292136	-39.714166	161.00	10	1.100	0.900	18.66	-0.00	0	0
2049	1	11.57	3.28	0.00	0.00	2	1.0249581	-46.743143	161.00	10	1.100	0.900	18.66	-0.00	0	0
2050	1	3.66	1.04	0.00	0.00	2	0.9997112	-64.156156	161.00	11	1.100	0.900	18.66	-0.00	0	0
2051	1	17.85	5.06	0.00	0.00	2	1.0050693	-57.498264	161.00	11	1.100	0.900	18.66	-0.00	0	0
2052	1	24.84	7.04	0.00	0.00	2	1.0208313	-40.244999	161.00	10	1.100	0.900	18.66	-0.00	0	0
2053	1	29.13	8.25	0.00	0.00	2	0.9994794	-60.218037	161.00	11	1.100	0.900	18.66	-0.00	0	0
2054	1	0.00	0.00	0.00	0.00	2	1.0115376	-48.843823	500.00	11	1.100	0.900	18.66	-0.00	0	0
2055	1	49.62	14.06	0.00	0.00	2	1.0104720	-49.571943	161.00	11	1.100	0.900	18.66	-0.00	0	0
2056	2	0.00	0.00	0.00	0.00	2	1.0115376	-48.843823	18.00	11	1.100	0.900	18.66	-0.00	0	0
2057	2	0.00	0.00	0.00	0.00	2	0.9994531	-45.703428	18.00	11	1.100	0.900	18.66	-0.00	0	0
2058	1	0.00	0.00	0.00	0.00	2	1.0316748	-35.315783	161.00	10	1.100	0.900	18.66	-0.00	0	0
2059	2	0.00	0.00	0.00	0.00	2	1.0217211	-31.991210	13.80	10	1.100	0.900	18.66	-0.00	0	0
2060	1	3.80	1.08	0.00	0.00	2	1.0027136	-62.919976	161.00	11	1.100	0.900	18.66	-0.00	0	0
2061	1	0.00	0.00	0.00	0.00	2	1.0257041	-43.465797	161.00	10	1.100	0.900	18.66	-0.00	0	0
2062	2	0.00	0.00	0.00	0.00	2	1.0200000	-41.169259	18.00	10	1.100	0.900	18.66	0.00	0	0
2063	1	65.62	18.59	0.00	40.00	2	1.0137078	-68.718101	161.00	11	1.100	0.900	18.66	-0.00	0	0
2064	1	10.05	2.85	0.00	0.00	2	1.0079864	-61.352258	161.00	11	1.100	0.900	18.66	-0.00	0	0
2065	1	78.36	22.20	0.00	96.15	2	1.0300000	-66.392140	161.00	11	1.100	0.900	18.66	0.00	0	0
2066	1	7.11	2.02	0.00	0.00	2	1.0206990	-33.738371	161.00	10	1.100	0.900	18.66	-0.00	0	0
2067	1	53.97	15.29	0.00	0.00	2	1.0039640	-49.518224	161.00	11	1.100	0.900	18.66	-0.00	0	0
2068	1	5.76	1.63	0.00	0.00	2	1.0065985	-47.204587	161.00	11	1.100	0.900	18.66	-0.00	0	0
2069	1	21.92	6.21	0.00	120.00	2	1.0298478	-69.391618	161.00	11	1.100	0.900	18.66	0.00	0	0
2070	1	0.00	0.00	0.00	0.00	2	1.0080691	-46.681327	161.00	11	1.100	0.900	18.66	-0.00	0	0
2071	2	0.00	0.00	0.00	0.00	2	1.0000000	-43.019452	18.00	11	1.100	0.900	18.66	0.00	0	0
2072	1	9.71	2.75	0.00	0.00	2	1.0233892	-67.582538	161.00	11	1.100	0.900	18.66	0.00	0	0
2073	1	0.00	0.00	0.00	0.00	2	1.0212667	-31.114563	161.00	10	1.100	0.900	18.66	-0.00	0	0
2074	1	0.00	0.00	0.00	0.00	2	1.0105466	-29.019381	115.00	10	1.100	0.900	18.66	-0.00	0	0
2075	1	0.00	0.00	0.00	0.00	2	1.0105466	-29.019381	115.00	10	1.100	0.900	18.66	-0.00	0	0
2076	2	0.00	0.00	0.00	0.00	2	1.0265019	-30.218005	24.00	10	1.100	0.900	18.66	-0.00	0	0
2077	1	0.00	0.00	0.00	0.00	2	1.0270800	-62.633945	161.00	11	1.100	0.900	18.66	-0.00	0	0
2078	2	0.00	0.00	0.00	0.00	2	1.0200000	-59.326589	13.80	11	1.100	0.900	18.66	0.00	0	0
2079	1	4.48	1.27	0.00	0.00	2	1.0309062	-41.800812	161.00	10	1.100	0.900	18.66	-0.00	0	0
2080	1	16.93	4.80	0.00	0.00	2	1.0084444	-59.962808	161.00	11	1.100	0.900	18.66	-0.00	0	0
2081	1	4.46	1.26	0.00	0.00	2	1.0071177	-65.676489	161.00	11	1.100	0.900	18.66	-0.00	0	0
2082	1	59.03	16.73	0.00	0.00	2	1.0141436	-50.358388	161.00	11	1.100	0.900	18.66	-0.00	0	0
2083	2	0.00	0.00	0.00	0.00	2	1.0200000	-48.781704	20.00	11	1.100	0.900	18.66	0.00	0	0
2084	2	0.00	0.00	0.00	0.00	2	1.0141436	-50.358388	20.00	11	1.100	0.900	18.66	-0.00	0	0
2085	2	0.00	0.00	0.00	0.00	2	1.0141436	-50.358388	20.00	11	1.100	0.900	18.66	-0.00	0	0
2086	1	2.19	0.62	0.00	0.00	2	1.0049149	-61.303744	161.00	11	1.100	0.900	18.66	-0.00	0	0
2087	1	7.90	2.24	0.00	0.00	2	1.0220986	-34.071662	161.00	10	1.100	0.900	18.66	-0.00	0	0
2088	1	0.00	0.00	0.00	0.00	2	1.0071580	-46.865657	161.00	11	1.100	0.900	18.66	-0.00	0	0
2089	2	0.00	0.00	0.00	0.00	2	1.0000000	-43.279699	24.00	11	1.100	0.900	18.66	0.00	0	0
2090	1	2.42	0.69	0.00	0.00	2	1.0075246	-62.103332	161.00	11	1.100	0.900	18.66	-0.00	0	0
2091	1	17.05	4.83	0.00	0.00	2	1.0248340	-40.389428	161.00	10	1.100	0.900	18.66	-0.00	0	0
2092	1	24.11	6.83	0.00	0.00	2	1.0124398	-67.086060	161.00	11	1.100	0.900	18.66	-0.00	0	0
2093	1	0.00	0.00	0.00	0.00	2	1.0306504	-38.957230	161.00	10	1.100	0.900	18.66	-0.00	0	0
2094	2	0.00	0.00	0.00	0.00	2	1.0306504	-38.957230	13.80	10	1.100	0.900	18.66	-0.00	0	0
2095	2	0.00	0.00	0.00	0.00	2	1.0306504	-38.957230	13.80	10	1.100	0.900	18.66	-0.00	0	0
2096	1	0.00	0.00	0.00	-173.87	2	1.0297711	-40.089806	500.00	10	1.100	0.900	18.66	-0.00	0	0
2097	1	0.00	0.00	0.00	0.00	2	1.0266064	-39.007713	230.00	10	1.100	0.900	18.66	-0.00	0	0
2098	1	0.00	0.00	0.00	0.00	2	1.0292941	-40.106234	161.00	10	1.100	0.900	18.66	-0.00	0	0
2099	2	0.00	0.00	0.00	0.00	2	1.0293034	-39.948610	18.00	10	1.100	0.900	18.66	-0.00	0	0
2100	2	0.00	0.00	0.00	0.00	2	1.0205687	-37.482634	18.00	10	1.100	0.900	18.66	-0.00	0	0
2101	1	0.00	0.00	0.00	0.00	2	1.0160233	-63.159415	500.00	11	1.100	0.900	18.66	-0.00	0	0
2102	1	0.00	0.00	0.00	0.00	2	1.0169340	-64.559380	161.00	11	1.100	0.900	18.66	-0.00	0	0
2103	2	0.00	0.00	0.00	0.00	2	1.0160233	-63.159415	20.00	11	1.100	0.900	18.66	-0.00	0	0
2104	2	0.00	0.00	0.00	0.00	2	1.0160233	-63.159415	20.00	11	1.100	0.900	18.66	-0.00	0	0
2105	2	0.00	0.00	0.00	0.00	2	1.0160233	-63.159415	20.00	11	1.100	0.900	18.66	-0.00	0	0
2106	1	14.40	4.08	0.00	0.00	2	0.9954990	-66.755343	161.00	11	1.100	0.900	18.66	-0.00	0	0
2107	1	74.15	21.01	0.00	0.00	2	1.0117033	-65.364823	161.00	11	1.100	0.900	18.66	-0.00	0	0
2108	1	2.14	0.61	0.00	0.00	2	1.0127688	-47.191431	161.00	10	1.100	0.900	18.66	0.00	0	0
2109	1	33.81	9.58	0.00	0.00	2	1.0184129	-51.630965	161.00	11	1.100	0.900	18.66	-0.00	0	0
...
];

%% generator data 
mpc.gen = [
1004	158.25	-30.38	44.94	-30.38	1.0100	253.20	1	158.25	158.25	0.00	0.00	0.00	0.00	0.00	0.00	0	0	0	0	211.0000	0	0	0	0
1006	25.73	-4.94	7.31	-4.94	1.0000	41.16	1	25.73	25.73	0.00	0.00	0.00	0.00	0.00	0.00	0	0	0	0	34.3000	0	0	0	0
1009	61.87	-11.88	17.57	-11.88	1.0000	99.00	1	61.87	61.87	0.00	0.00	0.00	0.00	0.00	0.00	0	0	0	0	82.5000	0	0	0	0
1011	10.00	0.00	0.00	0.00	1.0000	12.00	1	10.00	10.00	0.00	0.00	0.00	0.00	0.00	0.00	0	0	0	0	10.0000	0	0	0	0
1021	149.63	-28.73	42.49	-28.73	1.0000	239.40	1	149.63	149.63	0.00	0.00	0.00	0.00	0.00	0.00	0	0	0	0	199.5000	0	0	0	0
1023	135.00	0.04	38.34	-25.92	1.0100	216.00	1	135.00	135.00	0.00	0.00	0.00	0.00	0.00	0.00	0	0	0	0	180.0000	0	0	0	0
1026	93.15	-6.81	26.45	-17.88	1.0000	149.04	1	93.15	93.15	0.00	0.00	0.00	0.00	0.00	0.00	0	0	0	0	124.2000	0	0	0	0
1033	208.50	-40.03	59.21	-40.03	1.0000	333.60	1	208.50	208.50	0.00	0.00	0.00	0.00	0.00	0.00	0	0	0	0	278.0000	0	0	0	0
1035	67.50	-9.36	19.17	-12.96	1.0000	108.00	1	67.50	67.50	0.00	0.00	0.00	0.00	0.00	0.00	0	0	0	0	90.0000	0	0	0	0
1039	110.63	-21.01	31.42	-21.24	1.0000	177.00	1	110.63	110.63	0.00	0.00	0.00	0.00	0.00	0.00	0	0	0	0	147.5000	0	0	0	0
1042	0.00	0.00	25.96	-17.55	1.0000	146.28	0	121.90	36.57	0.00	0.00	0.00	0.00	0.00	0.00	0	0	0	0	121.9000	0	0	0	0
1043	44.10	-3.76	12.52	-8.47	1.0000	70.56	1	44.10	44.10	0.00	0.00	0.00	0.00	0.00	0.00	0	0	0	0	58.8000	0	0	0	0
1048	0.00	0.00	165.53	-36.10	1.0000	390.24	0	325.20	97.56	0.00	0.00	0.00	0.00	0.00	0.00	0	0	0	0	325.2000	0	0	0	0
1049	0.00	0.00	165.53	-36.10	1.0000	390.24	0	325.20	97.56	0.00	0.00	0.00	0.00	0.00	0.00	0	0	0	0	325.2000	0	0	0	0
1050	89.40	-6.97	45.50	-9.92	1.0000	107.28	1	89.40	26.82	0.00	0.00	0.00	0.00	0.00	0.00	0	0	0	0	89.4000	0	0	0	0
1051	89.40	-5.07	45.50	-9.92	1.0000	107.28	1	89.40	26.82	0.00	0.00	0.00	0.00	0.00	0.00	0	0	0	0	89.4000	0	0	0	0
1052	89.40	-9.92	45.50	-9.92	1.0000	107.28	1	89.40	26.82	0.00	0.00	0.00	0.00	0.00	0.00	0	0	0	0	89.4000	0	0	0	0
1053	0.00	0.00	91.01	-19.85	1.0000	214.56	0	178.80	53.64	0.00	0.00	0.00	0.00	0.00	0.00	0	0	0	0	178.8000	0	0	0	0
1057	0.00	0.00	25.56	-17.28	1.0000	144.00	0	120.00	36.00	0.00	0.00	0.00	0.00	0.00	0.00	0	0	0	0	120.0000	0	0	0	0
1059	0.00	0.00	2.85	-0.62	1.0400	6.72	0	5.60	1.68	0.00	0.00	0.00	0.00	0.00	0.00	0	0	0	0	5.6000	0	0	0	0
1060	0.00	0.00	1.02	-0.22	1.0400	2.40	0	2.00	0.60	0.00	0.00	0.00	0.00	0.00	0.00	0	0	0	0	2.0000	0	0	0	0
1062	0.00	0.00	0.00	0.00	1.0100	1.80	0	1.50	0.45	0.00	0.00	0.00	0.00	0.00	0.00	0	0	0	0	1.5000	0	0	0	0
1063	0.00	0.00	0.00	0.00	1.0100	276.00	0	230.00	69.00	0.00	0.00	0.00	0.00	0.00	0.00	0	0	0	0	230.0000	0	0	0	0
1066	106.88	-3.83	30.35	-20.52	1.0000	171.00	1	106.88	106.88	0.00	0.00	0.00	0.00	0.00	0.00	0	0	0	0	142.5000	0	0	0	0
1070	120.38	17.67	34.19	-23.11	1.0400	192.60	1	120.38	120.38	0.00	0.00	0.00	0.00	0.00	0.00	0	0	0	0	160.5000	0	0	0	0
1072	192.13	20.93	97.80	-21.33	1.0100	230.56	1	192.13	57.64	0.00	0.00	0.00	0.00	0.00	0.00	0	0	0	0	192.1300	0	0	0	0
1073	192.13	29.98	97.80	-21.33	1.0100	230.56	1	192.13	57.64	0.00	0.00	0.00	0.00	0.00	0.00	0	0	0	0	192.1300	0	0	0	0
1074	192.13	25.86	97.80	-21.33	1.0100	230.56	1	192.13	57.64	0.00	0.00	0.00	0.00	0.00	0.00	0	0	0	0	192.1300	0	0	0	0
1075	192.13	25.86	97.80	-21.33	1.0100	230.56	1	192.13	57.64	0.00	0.00	0.00	0.00	0.00	0.00	0	0	0	0	192.1300	0	0	0	0
1076	0.00	0.00	97.80	-21.33	1.0100	230.56	0	192.13	57.64	0.00	0.00	0.00	0.00	0.00	0.00	0	0	0	0	192.1300	0	0	0	0
1077	0.00	0.00	97.80	-21.33	1.0100	230.56	0	192.13	57.64	0.00	0.00	0.00	0.00	0.00	0.00	0	0	0	0	192.1300	0	0	0	0
1078	95.50	13.71	48.61	-10.60	1.0100	114.60	1	95.50	28.65	0.00	0.00	0.00	0.00	0.00	0.00	0	0	0	0	95.5000	0	0	0	0
1079	95.50	-10.60	48.61	-10.60	1.0100	114.60	1	95.50	28.65	0.00	0.00	0.00	0.00	0.00	0.00	0	0	0	0	95.5000	0	0	0	0
1080	95.50	10.71	48.61	-10.60	1.0100	114.60	1	95.50	28.65	0.00	0.00	0.00	0.00	0.00	0.00	0	0	0	0	95.5000	0	0	0	0
1081	0.00	0.00	145.83	-31.80	1.0100	343.80	0	286.50	85.95	0.00	0.00	0.00	0.00	0.00	0.00	0	0	0	0	286.5000	0	0	0	0
1082	112.50	-21.60	31.95	-21.60	1.0000	180.00	1	112.50	112.50	0.00	0.00	0.00	0.00	0.00	0.00	0	0	0	0	150.0000	0	0	0	0
1084	86.62	24.60	24.60	-16.63	1.0400	138.60	1	86.62	86.62	0.00	0.00	0.00	0.00	0.00	0.00	0	0	0	0	115.5000	0	0	0	0
1088	56.25	-3.48	15.97	-10.80	1.0000	90.00	1	56.25	56.25	0.00	0.00	0.00	0.00	0.00	0.00	0	0	0	0	75.0000	0	0	0	0
1090	114.37	24.20	32.48	-21.96	1.0200	183.00	1	114.37	114.37	0.00	0.00	0.00	0.00	0.00	0.00	0	0	0	0	152.5000	0	0	0	0
1090	27.00	7.67	7.67	-5.18	1.0200	43.20	1	27.00	27.00	0.00	0.00	0.00	0.00	0.00	0.00	0	0	0	0	36.0000	0	0	0	0
2004	0.00	0.00	199.43	-43.49	1.0200	470.16	0	391.80	117.54	0.00	0.00	0.00	0.00	0.00	0.00	0	0	0	0	391.8000	0	0	0	0
2005	0.00	0.00	199.43	-43.49	1.0200	470.16	0	391.80	117.54	0.00	0.00	0.00	0.00	0.00	0.00	0	0	0	0	391.8000	0	0	0	0
2006	0.00	0.00	199.43	-43.49	1.0200	470.16	0	391.80	117.54	0.00	0.00	0.00	0.00	0.00	0.00	0	0	0	0	391.8000	0	0	0	0
2013	150.45	-28.89	42.73	-28.89	1.0000	240.72	1	150.45	150.45	0.00	0.00	0.00	0.00	0.00	0.00	0	0	0	0	200.6000	0	0	0	0
2019	0.00	0.00	46.43	-31.39	1.0400	261.60	0	218.00	65.40	0.00	0.00	0.00	0.00	0.00	0.00	0	0	0	0	218.0000	0	0	0	0
2023	83.33	5.96	42.42	-9.25	1.0200	100.00	1	83.33	25.00	0.00	0.00	0.00	0.00	0.00	0.00	0	0	0	0	83.3300	0	0	0	0
2024	166.67	9.39	84.83	-18.50	1.0200	200.00	1	166.67	50.00	0.00	0.00	0.00	0.00	0.00	0.00	0	0	0	0	166.6700	0	0	0	0
2042	59.70	-11.46	16.95	-11.46	1.0100	95.52	1	59.70	59.70	0.00	0.00	0.00	0.00	0.00	0.00	0	0	0	0	79.6000	0	0	0	0
2056	0.00	0.00	2.80	-0.73	0.9900	7.20	0	6.00	1.80	0.00	0.00	0.00	0.00	0.00	0.00	0	0	0	0	6.0000	0	0	0	0
2057	417.60	-87.84	335.52	-87.84	0.9900	864.00	1	720.00	216.00	0.00	0.00	0.00	0.00	0.00	0.00	0	0	0	0	720.0000	0	0	0	0
2059	60.00	-11.52	17.04	-11.52	1.0000	96.00	1	60.00	60.00	0.00	0.00	0.00	0.00	0.00	0.00	0	0	0	0	80.0000	0	0	0	0
2062	101.55	-16.09	28.84	-19.50	1.0200	162.48	1	101.55	101.55	0.00	0.00	0.00	0.00	0.00	0.00	0	0	0	0	135.4000	0	0	0	0
2071	112.50	-13.07	31.95	-21.60	1.0000	180.00	1	112.50	112.50	0.00	0.00	0.00	0.00	0.00	0.00	0	0	0	0	150.0000	0	0	0	0
2076	22.50	6.39	6.39	-4.32	1.0400	36.00	1	22.50	22.50	0.00	0.00	0.00	0.00	0.00	0.00	0	0	0	0	30.0000	0	0	0	0
2078	84.38	-10.04	23.96	-16.20	1.0200	135.00	1	84.38	84.38	0.00	0.00	0.00	0.00	0.00	0.00	0	0	0	0	112.5000	0	0	0	0
2083	20.00	3.89	10.18	-2.22	1.0200	24.00	1	20.00	6.00	0.00	0.00	0.00	0.00	0.00	0.00	0	0	0	0	20.0000	0	0	0	0
2084	0.00	0.00	10.18	-2.22	1.0200	24.00	0	20.00	6.00	0.00	0.00	0.00	0.00	0.00	0.00	0	0	0	0	20.0000	0	0	0	0
2085	0.00	0.00	20.36	-4.44	1.0200	48.00	0	40.00	12.00	0.00	0.00	0.00	0.00	0.00	0.00	0	0	0	0	40.0000	0	0	0	0
2089	50.70	-5.24	14.40	-9.73	1.0000	81.12	1	50.70	50.70	0.00	0.00	0.00	0.00	0.00	0.00	0	0	0	0	67.6000	0	0	0	0
2094	0.00	0.00	2.13	-1.44	1.0000	12.00	0	10.00	3.00	0.00	0.00	0.00	0.00	0.00	0.00	0	0	0	0	10.0000	0	0	0	0
2095	0.00	0.00	16.93	-11.45	1.0000	95.40	0	79.50	23.85	0.00	0.00	0.00	0.00	0.00	0.00	0	0	0	0	79.5000	0	0	0	0
2099	7.50	-1.44	2.13	-1.44	1.0200	12.00	1	7.50	7.50	0.00	0.00	0.00	0.00	0.00	0.00	0	0	0	0	10.0000	0	0	0	0
2100	112.50	-21.60	31.95	-21.60	1.0200	180.00	1	112.50	112.50	0.00	0.00	0.00	0.00	0.00	0.00	0	0	0	0	150.0000	0	0	0	0
2103	0.00	0.00	136.28	-29.72	1.0000	321.28	0	267.73	80.32	0.00	0.00	0.00	0.00	0.00	0.00	0	0	0	0	267.7300	0	0	0	0
2104	0.00	0.00	136.28	-29.72	1.0000	321.28	0	267.73	80.32	0.00	0.00	0.00	0.00	0.00	0.00	0	0	0	0	267.7300	0	0	0	0
2105	0.00	0.00	136.28	-29.72	1.0000	321.28	0	267.73	80.32	0.00	0.00	0.00	0.00	0.00	0.00	0	0	0	0	267.7300	0	0	0	0
2115	184.72	-20.50	94.02	-20.50	1.0000	221.66	1	184.72	55.41	0.00	0.00	0.00	0.00	0.00	0.00	0	0	0	0	184.7200	0	0	0	0
2116	184.72	-20.50	94.02	-20.50	1.0000	221.66	1	184.72	55.41	0.00	0.00	0.00	0.00	0.00	0.00	0	0	0	0	184.7200	0	0	0	0
2117	184.72	-20.50	94.02	-20.50	1.0000	221.66	1	184.72	55.41	0.00	0.00	0.00	0.00	0.00	0.00	0	0	0	0	184.7200	0	0	0	0
2118	184.72	-20.50	94.02	-20.50	1.0000	221.66	1	184.72	55.41	0.00	0.00	0.00	0.00	0.00	0.00	0	0	0	0	184.7200	0	0	0	0
2119	184.72	-20.50	94.02	-20.50	1.0000	221.66	1	184.72	55.41	0.00	0.00	0.00	0.00	0.00	0.00	0	0	0	0	184.7200	0	0	0	0
2120	184.72	-11.78	94.02	-20.50	1.0100	221.66	1	184.72	55.41	0.00	0.00	0.00	0.00	0.00	0.00	0	0	0	0	184.7200	0	0	0	0
2123	136.28	-26.16	38.70	-26.16	1.0000	218.04	1	136.28	136.28	0.00	0.00	0.00	0.00	0.00	0.00	0	0	0	0	181.7000	0	0	0	0
2127	216.45	-41.56	61.47	-41.56	1.0400	346.32	1	216.45	216.45	0.00	0.00	0.00	0.00	0.00	0.00	0	0	0	0	288.6000	0	0	0	0
3004	28.13	-5.40	7.99	-5.40	1.0000	45.00	1	28.13	28.13	0.00	0.00	0.00	0.00	0.00	0.00	0	0	0	0	37.5000	0	0	0	0
3017	127.13	-2.33	36.10	-24.41	1.0100	203.40	1	127.13	127.13	0.00	0.00	0.00	0.00	0.00	0.00	0	0	0	0	169.5000	0	0	0	0
3020	112.50	-2.04	31.95	-21.60	1.0300	180.00	1	112.50	112.50	0.00	0.00	0.00	0.00	0.00	0.00	0	0	0	0	150.0000	0	0	0	0
3028	150.00	23.36	42.60	-28.80	1.0400	240.00	1	150.00	150.00	0.00	0.00	0.00	0.00	0.00	0.00	0	0	0	0	200.0000	0	0	0	0
3034	97.87	17.11	27.80	-18.79	1.0300	156.60	1	97.87	97.87	0.00	0.00	0.00	0.00	0.00	0.00	0	0	0	0	130.5000	0	0	0	0
3039	156.75	30.29	44.52	-30.10	1.0400	250.80	1	156.75	156.75	0.00	0.00	0.00	0.00	0.00	0.00	0	0	0	0	209.0000	0	0	0	0
3043	0.00	0.00	0.66	-0.14	1.0400	1.56	0	1.30	0.39	0.00	0.00	0.00	0.00	0.00	0.00	0	0	0	0	1.3000	0	0	0	0
3044	0.00	0.00	45.50	-9.92	1.0400	107.28	0	89.40	26.82	0.00	0.00	0.00	0.00	0.00	0.00	0	0	0	0	89.4000	0	0	0	0
3045	0.00	0.00	227.52	-49.62	1.0400	536.40	0	447.00	134.10	0.00	0.00	0.00	0.00	0.00	0.00	0	0	0	0	447.0000	0	0	0	0
3048	180.75	51.33	51.33	-34.70	1.0400	289.20	1	180.75	180.75	0.00	0.00	0.00	0.00	0.00	0.00	0	0	0	0	241.0000	0	0	0	0
3055	183.88	30.02	52.22	-35.30	1.0400	294.20	1	183.88	183.88	0.00	0.00	0.00	0.00	0.00	0.00	0	0	0	0	245.1700	0	0	0	0
3056	183.88	21.08	52.22	-35.30	1.0400	294.20	1	183.88	183.88	0.00	0.00	0.00	0.00	0.00	0.00	0	0	0	0	245.1700	0	0	0	0
3057	183.88	19.37	52.22	-35.30	1.0400	294.20	1	183.88	183.88	0.00	0.00	0.00	0.00	0.00	0.00	0	0	0	0	245.1700	0	0	0	0
3060	124.22	10.87	35.28	-23.85	1.0400	198.75	1	124.22	124.22	0.00	0.00	0.00	0.00	0.00	0.00	0	0	0	0	165.6300	0	0	0	0
3061	124.22	10.71	35.28	-23.85	1.0400	198.75	1	124.22	124.22	0.00	0.00	0.00	0.00	0.00	0.00	0	0	0	0	165.6300	0	0	0	0
3062	124.22	13.09	35.28	-23.85	1.0400	198.75	1	124.22	124.22	0.00	0.00	0.00	0.00	0.00	0.00	0	0	0	0	165.6300	0	0	0	0
3063	124.22	10.39	35.28	-23.85	1.0400	198.75	1	124.22	124.22	0.00	0.00	0.00	0.00	0.00	0.00	0	0	0	0	165.6300	0	0	0	0
3065	60.37	-11.59	17.15	-11.59	1.0000	96.60	1	60.37	60.37	0.00	0.00	0.00	0.00	0.00	0.00	0	0	0	0	80.5000	0	0	0	0
3068	112.50	23.41	31.95	-21.60	1.0400	180.00	1	112.50	112.50	0.00	0.00	0.00	0.00	0.00	0.00	0	0	0	0	150.0000	0	0	0	0
3071	127.65	-24.51	36.25	-24.51	1.0000	204.24	1	127.65	127.65	0.00	0.00	0.00	0.00	0.00	0.00	0	0	0	0	170.2000	0	0	0	0
3074	74.85	-7.27	21.26	-14.37	1.0000	119.76	1	74.85	74.85	0.00	0.00	0.00	0.00	0.00	0.00	0	0	0	0	99.8000	0	0	0	0
3081	186.75	23.70	53.04	-35.86	1.0400	298.80	1	186.75	186.75	0.00	0.00	0.00	0.00	0.00	0.00	0	0	0	0	249.0000	0	0	0	0
3084	174.37	-13.88	49.52	-33.48	1.0000	279.00	1	174.37	174.37	0.00	0.00	0.00	0.00	0.00	0.00	0	0	0	0	232.5000	0	0	0	0
3086	56.25	-2.01	15.97	-10.80	1.0000	90.00	1	56.25	56.25	0.00	0.00	0.00	0.00	0.00	0.00	0	0	0	0	75.0000	0	0	0	0
3087	0.00	0.00	15.97	-10.80	1.0000	90.00	0	75.00	22.50	0.00	0.00	0.00	0.00	0.00	0.00	0	0	0	0	75.0000	0	0	0	0
3092	150.00	18.47	42.60	-28.80	1.0400	240.00	1	150.00	150.00	0.00	0.00	0.00	0.00	0.00	0.00	0	0	0	0	200.0000	0	0	0	0
3095	90.45	18.63	25.69	-17.37	1.0400	144.72	1	90.45	90.45	0.00	0.00	0.00	0.00	0.00	0.00	0	0	0	0	120.6000	0	0	0	0
3098	120.00	19.65	34.08	-23.04	1.0400	192.00	1	120.00	120.00	0.00	0.00	0.00	0.00	0.00	0.00	0	0	0	0	160.0000	0	0	0	0
3105	44.50	-0.74	17.07	-0.74	1.0000	46.72	1	44.50	44.50	0.00	0.00	0.00	0.00	0.00	0.00	0	0	0	0	15.0000	0	0	0	0
3106	162.80	22.55	62.48	-2.69	1.0000	170.94	1	162.80	162.80	0.00	0.00	0.00	0.00	0.00	0.00	0	0	0	0	54.9000	0	0	0	0
3110	63.00	12.88	17.89	-12.10	1.0400	100.80	1	63.00	63.00	0.00	0.00	0.00	0.00	0.00	0.00	0	0	0	0	84.0000	0	0	0	0
3112	56.10	-3.76	15.93	-10.77	1.0000	89.76	1	56.10	56.10	0.00	0.00	0.00	0.00	0.00	0.00	0	0	0	0	74.8000	0	0	0	0
3113	56.10	-3.08	15.93	-10.77	1.0000	89.76	1	56.10	56.10	0.00	0.00	0.00	0.00	0.00	0.00	0	0	0	0	74.8000	0	0	0	0
3117	47.25	-5.15	13.42	-9.07	1.0000	75.60	1	47.25	47.25	0.00	0.00	0.00	0.00	0.00	0.00	0	0	0	0	63.0000	0	0	0	0
3118	90.00	-8.63	25.56	-17.28	1.0000	144.00	1	90.00	90.00	0.00	0.00	0.00	0.00	0.00	0.00	0	0	0	0	120.0000	0	0	0	0
3120	29.70	0.00	0.00	0.00	1.0000	47.52	1	29.70	29.70	0.00	0.00	0.00	0.00	0.00	0.00	0	0	0	0	39.6000	0	0	0	0
3122	147.75	-13.95	41.96	-28.37	1.0000	236.40	1	147.75	147.75	0.00	0.00	0.00	0.00	0.00	0.00	0	0	0	0	197.0000	0	0	0	0
3127	101.25	-19.44	28.76	-19.44	1.0000	162.00	1	101.25	101.25	0.00	0.00	0.00	0.00	0.00	0.00	0	0	0	0	135.0000	0	0	0	0
3129	94.88	-18.22	26.94	-18.22	1.0000	151.80	1	94.88	94.88	0.00	0.00	0.00	0.00	0.00	0.00	0	0	0	0	126.5000	0	0	0	0
3131	85.50	14.35	24.28	-16.42	1.0200	136.80	1	85.50	85.50	0.00	0.00	0.00	0.00	0.00	0.00	0	0	0	0	114.0000	0	0	0	0
3133	0.00	0.00	26.11	-5.69	1.0400	61.56	0	51.30	15.39	0.00	0.00	0.00	0.00	0.00	0.00	0	0	0	0	51.3000	0	0	0	0
3133	0.00	0.00	26.11	-5.69	1.0400	61.56	0	51.30	15.39	0.00	0.00	0.00	0.00	0.00	0.00	0	0	0	0	51.3000	0	0	0	0
3133	0.00	0.00	26.11	-5.69	1.0400	61.56	0	51.30	15.39	0.00	0.00	0.00	0.00	0.00	0.00	0	0	0	0	51.3000	0	0	0	0
3137	75.90	21.56	21.56	-14.57	1.0300	121.44	1	75.90	75.90	0.00	0.00	0.00	0.00	0.00	0.00	0	0	0	0	101.2000	0	0	0	0
3141	68.62	-13.18	19.49	-13.18	1.0000	109.80	1	68.62	68.62	0.00	0.00	0.00	0.00	0.00	0.00	0	0	0	0	91.5000	0	0	0	0
4010	151.20	14.09	42.94	-29.03	1.0300	241.92	1	151.20	151.20	0.00	0.00	0.00	0.00	0.00	0.00	0	0	0	0	201.6000	0	0	0	0
4026	410.00	39.82	191.06	-50.02	1.0300	492.00	1	410.00	123.00	0.00	0.00	0.00	0.00	0.00	0.00	0	0	0	0	410.0000	0	0	0	0
4030	448.13	-66.83	290.04	-75.93	1.0100	746.88	1	622.40	186.72	0.00	0.00	0.00	0.00	0.00	0.00	0	0	0	0	622.4000	0	0	0	0
4045	93.40	12.03	35.86	-1.54	1.0200	98.07	1	93.40	93.40	0.00	0.00	0.00	0.00	0.00	0.00	0	0	0	0	31.5000	0	0	0	0
4046	6.72	4.62	10.94	-0.47	1.0200	29.92	1	6.72	6.72	0.00	0.00	0.00	0.00	0.00	0.00	0	0	0	0	9.6000	0	0	0	0
4047	195.70	17.83	75.10	-3.23	1.0200	205.49	1	195.70	195.70	0.00	0.00	0.00	0.00	0.00	0.00	0	0	0	0	66.0000	0	0	0	0
4050	150.00	-16.00	42.60	-28.80	1.0000	240.00	1	150.00	150.00	0.00	0.00	0.00	0.00	0.00	0.00	0	0	0	0	200.0000	0	0	0	0
4052	44.20	22.50	22.50	-4.91	1.0400	53.04	1	44.20	13.26	0.00	0.00	0.00	0.00	0.00	0.00	0	0	0	0	44.2000	0	0	0	0
4058	144.00	20.16	73.30	-15.98	1.0300	172.80	1	144.00	43.20	0.00	0.00	0.00	0.00	0.00	0.00	0	0	0	0	144.0000	0	0	0	0
4059	144.00	20.10	73.30	-15.98	1.0300	172.80	1	144.00	43.20	0.00	0.00	0.00	0.00	0.00	0.00	0	0	0	0	144.0000	0	0	0	0
4060	144.00	16.97	73.30	-15.98	1.0300	172.80	1	144.00	43.20	0.00	0.00	0.00	0.00	0.00	0.00	0	0	0	0	144.0000	0	0	0	0
4061	172.33	21.71	87.72	-19.13	1.0300	206.80	1	172.33	51.70	0.00	0.00	0.00	0.00	0.00	0.00	0	0	0	0	172.3300	0	0	0	0
4062	172.33	17.66	87.72	-19.13	1.0300	206.80	1	172.33	51.70	0.00	0.00	0.00	0.00	0.00	0.00	0	0	0	0	172.3300	0	0	0	0
4063	172.33	23.74	87.72	-19.13	1.0300	206.80	1	172.33	51.70	0.00	0.00	0.00	0.00	0.00	0.00	0	0	0	0	172.3300	0	0	0	0
4065	47.00	14.71	23.92	-5.22	1.0200	56.40	1	47.00	14.10	0.00	0.00	0.00	0.00	0.00	0.00	0	0	0	0	47.0000	0	0	0	0
4075	0.00	0.00	89.75	-19.57	1.0300	211.60	0	176.33	52.90	0.00	0.00	0.00	0.00	0.00	0.00	0	0	0	0	176.3300	0	0	0	0
4076	52.90	22.99	89.75	-19.57	1.0300	211.60	1	176.33	52.90	0.00	0.00	0.00	0.00	0.00	0.00	0	0	0	0	176.3300	0	0	0	0
4077	52.90	20.54	89.75	-19.57	1.0300	211.60	1	176.33	52.90	0.00	0.00	0.00	0.00	0.00	0.00	0	0	0	0	176.3300	0	0	0	0
4082	243.40	31.14	123.89	-27.02	1.0400	292.08	1	243.40	73.02	0.00	0.00	0.00	0.00	0.00	0.00	0	0	0	0	243.4000	0	0	0	0
4083	243.40	32.02	123.89	-27.02	1.0400	292.08	1	243.40	73.02	0.00	0.00	0.00	0.00	0.00	0.00	0	0	0	0	243.4000	0	0	0	0
4084	243.40	49.08	123.89	-27.02	1.0400	292.08	1	243.40	73.02	0.00	0.00	0.00	0.00	0.00	0.00	0	0	0	0	243.4000	0	0	0	0
4085	302.72	55.18	179.17	-39.07	1.0400	422.40	1	352.00	105.60	0.00	0.00	0.00	0.00	0.00	0.00	0	0	0	0	352.0000	0	0	0	0
4090	0.00	0.00	0.65	-0.17	1.0100	1.68	0	1.40	0.42	0.00	0.00	0.00	0.00	0.00	0.00	0	0	0	0	1.4000	0	0	0	0
4091	23.50	3.42	10.95	-2.87	1.0100	28.20	1	23.50	7.05	0.00	0.00	0.00	0.00	0.00	0.00	0	0	0	0	23.5000	0	0	0	0
4092	0.00	0.00	3.54	-0.93	1.0100	9.12	0	7.60	2.28	0.00	0.00	0.00	0.00	0.00	0.00	0	0	0	0	7.6000	0	0	0	0
4093	28.00	2.10	13.05	-3.42	1.0100	33.60	1	28.00	8.40	0.00	0.00	0.00	0.00	0.00	0.00	0	0	0	0	28.0000	0	0	0	0
4094	28.00	6.98	13.05	-3.42	1.0100	33.60	1	28.00	8.40	0.00	0.00	0.00	0.00	0.00	0.00	0	0	0	0	28.0000	0	0	0	0
4095	28.00	3.19	13.05	-3.42	1.0100	33.60	1	28.00	8.40	0.00	0.00	0.00	0.00	0.00	0.00	0	0	0	0	28.0000	0	0	0	0
4096	0.00	0.00	13.05	-3.42	1.0100	33.60	0	28.00	8.40	0.00	0.00	0.00	0.00	0.00	0.00	0	0	0	0	28.0000	0	0	0	0
4097	28.00	2.79	13.05	-3.42	1.0100	33.60	1	28.00	8.40	0.00	0.00	0.00	0.00	0.00	0.00	0	0	0	0	28.0000	0	0	0	0
4098	0.00	0.00	13.05	-3.42	1.0100	33.60	0	28.00	8.40	0.00	0.00	0.00	0.00	0.00	0.00	0	0	0	0	28.0000	0	0	0	0
4105	135.00	28.27	38.34	-25.92	1.0100	216.00	1	135.00	135.00	0.00	0.00	0.00	0.00	0.00	0.00	0	0	0	0	180.0000	0	0	0	0
4115	39.54	28.36	67.09	-14.63	1.0400	158.16	1	131.80	39.54	0.00	0.00	0.00	0.00	0.00	0.00	0	0	0	0	131.8000	0	0	0	0
4116	39.54	26.57	67.09	-14.63	1.0400	158.16	1	131.80	39.54	0.00	0.00	0.00	0.00	0.00	0.00	0	0	0	0	131.8000	0	0	0	0
4133	0.00	0.00	17.10	-3.73	1.0000	40.32	0	33.60	10.08	0.00	0.00	0.00	0.00	0.00	0.00	0	0	0	0	33.6000	0	0	0	0
4134	10.08	-3.73	17.10	-3.73	1.0000	40.32	1	33.60	10.08	0.00	0.00	0.00	0.00	0.00	0.00	0	0	0	0	33.6000	0	0	0	0
4135	10.08	-3.73	17.10	-3.73	1.0000	40.32	1	33.60	10.08	0.00	0.00	0.00	0.00	0.00	0.00	0	0	0	0	33.6000	0	0	0	0
4136	10.08	-3.73	17.10	-3.73	1.0000	40.32	1	33.60	10.08	0.00	0.00	0.00	0.00	0.00	0.00	0	0	0	0	33.6000	0	0	0	0
4137	0.00	0.00	34.20	-7.46	1.0000	80.64	0	67.20	20.16	0.00	0.00	0.00	0.00	0.00	0.00	0	0	0	0	67.2000	0	0	0	0
4138	0.00	0.00	33.59	-7.33	1.0000	79.20	0	66.00	19.80	0.00	0.00	0.00	0.00	0.00	0.00	0	0	0	0	66.0000	0	0	0	0
4142	141.00	35.28	40.04	-27.07	1.0400	225.60	1	141.00	141.00	0.00	0.00	0.00	0.00	0.00	0.00	0	0	0	0	188.0000	0	0	0	0
4153	212.40	60.32	60.32	-40.78	1.0400	339.84	1	212.40	212.40	0.00	0.00	0.00	0.00	0.00	0.00	0	0	0	0	283.2000	0	0	0	0
4160	197.77	70.38	100.66	-21.95	1.0300	237.32	1	197.77	59.33	0.00	0.00	0.00	0.00	0.00	0.00	0	0	0	0	197.7700	0	0	0	0
4161	197.77	36.85	100.66	-21.95	1.0300	237.32	1	197.77	59.33	0.00	0.00	0.00	0.00	0.00	0.00	0	0	0	0	197.7700	0	0	0	0
4162	197.77	32.88	100.66	-21.95	1.0300	237.32	1	197.77	59.33	0.00	0.00	0.00	0.00	0.00	0.00	0	0	0	0	197.7700	0	0	0	0
4163	0.00	0.00	4.58	-1.00	1.0300	10.80	0	9.00	2.70	0.00	0.00	0.00	0.00	0.00	0.00	0	0	0	0	9.0000	0	0	0	0
4166	150.75	-28.94	42.81	-28.94	1.0000	241.20	1	150.75	150.75	0.00	0.00	0.00	0.00	0.00	0.00	0	0	0	0	201.0000	0	0	0	0
4177	112.50	-0.03	31.95	-21.60	1.0400	180.00	1	112.50	112.50	0.00	0.00	0.00	0.00	0.00	0.00	0	0	0	0	150.0000	0	0	0	0
4181	150.07	42.62	42.62	-28.81	1.0400	240.12	1	150.07	150.07	0.00	0.00	0.00	0.00	0.00	0.00	0	0	0	0	200.1000	0	0	0	0
4183	152.25	43.24	43.24	-29.23	1.0300	243.60	1	152.25	152.25	0.00	0.00	0.00	0.00	0.00	0.00	0	0	0	0	203.0000	0	0	0	0
4192	75.00	22.36	38.17	-8.33	1.0200	90.00	1	75.00	22.50	0.00	0.00	0.00	0.00	0.00	0.00	0	0	0	0	75.0000	0	0	0	0
4192	183.77	22.36	93.54	-20.40	1.0200	220.52	1	183.77	55.13	0.00	0.00	0.00	0.00	0.00	0.00	0	0	0	0	183.7700	0	0	0	0
4192	0.00	0.00	12.22	-2.66	1.0200	28.80	0	24.00	7.20	0.00	0.00	0.00	0.00	0.00	0.00	0	0	0	0	24.0000	0	0	0	0
4192	61.00	22.36	31.05	-6.77	1.0200	73.20	1	61.00	18.30	0.00	0.00	0.00	0.00	0.00	0.00	0	0	0	0	61.0000	0	0	0	0
4192	10.40	5.29	5.29	-1.15	1.0200	12.48	1	10.40	3.12	0.00	0.00	0.00	0.00	0.00	0.00	0	0	0	0	10.4000	0	0	0	0
4192	267.00	22.36	135.90	-29.64	1.0200	320.40	1	267.00	80.10	0.00	0.00	0.00	0.00	0.00	0.00	0	0	0	0	267.0000	0	0	0	0
4192	267.00	22.36	135.90	-29.64	1.0200	320.40	1	267.00	80.10	0.00	0.00	0.00	0.00	0.00	0.00	0	0	0	0	267.0000	0	0	0	0
4192	267.00	22.36	135.90	-29.64	1.0200	320.40	1	267.00	80.10	0.00	0.00	0.00	0.00	0.00	0.00	0	0	0	0	267.0000	0	0	0	0
4192	183.77	22.36	93.54	-20.40	1.0200	220.52	1	183.77	55.13	0.00	0.00	0.00	0.00	0.00	0.00	0	0	0	0	183.7700	0	0	0	0
4192	183.77	22.36	93.54	-20.40	1.0200	220.52	1	183.77	55.13	0.00	0.00	0.00	0.00	0.00	0.00	0	0	0	0	183.7700	0	0	0	0
4194	151.20	42.94	42.94	-29.03	1.0200	241.92	1	151.20	151.20	0.00	0.00	0.00	0.00	0.00	0.00	0	0	0	0	201.6000	0	0	0	0
4195	69.00	-13.25	19.60	-13.25	1.0000	110.40	1	69.00	69.00	0.00	0.00	0.00	0.00	0.00	0.00	0	0	0	0	92.0000	0	0	0	0
5020	90.00	-17.28	25.56	-17.28	1.0000	144.00	1	90.00	90.00	0.00	0.00	0.00	0.00	0.00	0.00	0	0	0	0	120.0000	0	0	0	0
5023	0.00	0.00	2.44	-0.53	1.0400	5.76	0	4.80	1.44	0.00	0.00	0.00	0.00	0.00	0.00	0	0	0	0	4.8000	0	0	0	0
5035	0.00	0.00	2.14	-0.47	1.0200	5.04	0	4.20	1.26	0.00	0.00	0.00	0.00	0.00	0.00	0	0	0	0	4.2000	0	0	0	0
5036	0.00	0.00	3.26	-0.71	1.0200	7.68	0	6.40	1.92	0.00	0.00	0.00	0.00	0.00	0.00	0	0	0	0	6.4000	0	0	0	0
5037	308.47	52.70	157.01	-34.24	1.0200	370.16	1	308.47	92.54	0.00	0.00	0.00	0.00	0.00	0.00	0	0	0	0	308.4700	0	0	0	0
5038	308.47	51.91	157.01	-34.24	1.0200	370.16	1	308.47	92.54	0.00	0.00	0.00	0.00	0.00	0.00	0	0	0	0	308.4700	0	0	0	0
5039	308.47	110.24	157.01	-34.24	1.0200	370.16	1	308.47	92.54	0.00	0.00	0.00	0.00	0.00	0.00	0	0	0	0	308.4700	0	0	0	0
5040	308.47	39.40	157.01	-34.24	1.0200	370.16	1	308.47	92.54	0.00	0.00	0.00	0.00	0.00	0.00	0	0	0	0	308.4700	0	0	0	0
5041	308.47	53.78	157.01	-34.24	1.0200	370.16	1	308.47	92.54	0.00	0.00	0.00	0.00	0.00	0.00	0	0	0	0	308.4700	0	0	0	0
5042	308.47	49.23	157.01	-34.24	1.0200	370.16	1	308.47	92.54	0.00	0.00	0.00	0.00	0.00	0.00	0	0	0	0	308.4700	0	0	0	0
5051	84.70	37.36	43.11	-9.40	1.0200	101.64	1	84.70	25.41	0.00	0.00	0.00	0.00	0.00	0.00	0	0	0	0	84.7000	0	0	0	0
5057	0.00	0.00	161.53	-35.23	1.0000	380.82	0	317.35	95.20	0.00	0.00	0.00	0.00	0.00	0.00	0	0	0	0	317.3500	0	0	0	0
5058	317.35	-35.23	161.53	-35.23	1.0000	380.82	1	317.35	95.20	0.00	0.00	0.00	0.00	0.00	0.00	0	0	0	0	317.3500	0	0	0	0
5065	10.60	5.40	5.40	-1.18	1.0300	12.72	1	10.60	3.18	0.00	0.00	0.00	0.00	0.00	0.00	0	0	0	0	10.6000	0	0	0	0
5066	0.00	0.00	0.92	-0.20	1.0300	2.16	0	1.80	0.54	0.00	0.00	0.00	0.00	0.00	0.00	0	0	0	0	1.8000	0	0	0	0
5067	254.20	152.14	223.08	-48.65	1.0300	525.92	1	438.27	131.48	0.00	0.00	0.00	0.00	0.00	0.00	0	0	0	0	438.2700	0	0	0	0
5068	254.20	143.82	223.08	-48.65	1.0300	525.92	1	438.27	131.48	0.00	0.00	0.00	0.00	0.00	0.00	0	0	0	0	438.2700	0	0	0	0
5069	254.20	134.78	223.08	-48.65	1.0300	525.92	1	438.27	131.48	0.00	0.00	0.00	0.00	0.00	0.00	0	0	0	0	438.2700	0	0	0	0
5089	0.00	0.00	47.57	-2.05	1.0100	130.10	0	123.90	0.00	0.00	0.00	0.00	0.00	0.00	0.00	0	0	0	0	41.8000	0	0	0	0
...
];

%% generator cost data
mpc.gencost = [
2	0	0	4	0.0000	0.000	0.000	0.00
2	0	0	4	0.0000	0.000	0.000	0.00
2	0	0	4	0.0000	0.000	0.000	0.00
2	0	0	4	0.0000	0.000	0.000	0.00
2	0	0	4	0.0000	0.000	0.000	0.00
2	0	0	4	0.0000	0.000	0.000	0.00
2	0	0	4	0.0000	0.000	0.000	0.00
2	0	0	4	0.0000	0.000	0.000	0.00
2	0	0	4	0.0000	0.000	0.000	0.00
2	0	0	4	0.0000	0.000	0.000	0.00
2	0	0	4	0.0000	0.000	0.000	0.00
2	0	0	4	0.0000	0.000	0.000	0.00
2	0	0	4	0.0000	0.001	18.641	1087.80
2	0	0	4	0.0000	0.001	18.641	1087.80
2	0	0	4	0.0000	0.001	17.464	734.10
2	0	0	4	0.0000	0.001	17.464	734.10
2	0	0	4	0.0000	0.001	17.464	734.10
2	0	0	4	0.0000	0.001	17.910	868.20
2	0	0	4	0.0000	0.000	0.000	0.00
2	0	0	4	0.0000	0.001	17.046	608.40
2	0	0	4	0.0000	0.001	17.028	603.00
2	0	0	4	0.0000	0.000	0.000	0.00
2	0	0	4	0.0000	0.000	0.000	0.00
2	0	0	4	0.0000	0.000	0.000	0.00
2	0	0	4	0.0000	0.000	0.000	0.00
2	0	0	4	0.0000	0.001	17.977	888.20
2	0	0	4	0.0000	0.001	17.977	888.20
2	0	0	4	0.0000	0.001	17.977	888.20
2	0	0	4	0.0000	0.001	17.977	888.20
2	0	0	4	0.0000	0.001	17.977	888.20
2	0	0	4	0.0000	0.001	17.977	888.20
2	0	0	4	0.0000	0.001	17.495	743.25
2	0	0	4	0.0000	0.001	17.495	743.25
2	0	0	4	0.0000	0.001	17.495	743.25
2	0	0	4	0.0000	0.001	18.448	1029.75
2	0	0	4	0.0000	0.000	0.000	0.00
2	0	0	4	0.0000	0.000	0.000	0.00
2	0	0	4	0.0000	0.000	0.000	0.00
2	0	0	4	0.0000	0.000	0.000	0.00
2	0	0	4	0.0000	0.000	0.000	0.00
2	0	0	4	0.0000	0.002	27.494	1187.70
2	0	0	4	0.0000	0.002	27.494	1187.70
2	0	0	4	0.0000	0.002	27.494	1187.70
2	0	0	4	0.0000	0.000	0.000	0.00
2	0	0	4	0.0000	0.000	0.000	0.00
2	0	0	4	0.0000	0.001	16.989	724.99
2	0	0	4	0.0000	0.001	17.394	850.01
2	0	0	4	0.0000	0.000	0.000	0.00
2	0	0	4	0.0000	0.002	17.268	236.16
2	0	0	4	0.0000	0.002	17.268	1398.51
2	0	0	4	0.0000	0.000	0.000	0.00
2	0	0	4	0.0000	0.000	0.000	0.00
2	0	0	4	0.0000	0.000	0.000	0.00
2	0	0	4	0.0000	0.000	0.000	0.00
2	0	0	4	0.0000	0.000	0.000	0.00
2	0	0	4	0.0000	0.001	16.033	630.00
2	0	0	4	0.0000	0.001	16.033	630.00
2	0	0	4	0.0000	0.001	16.126	660.00
2	0	0	4	0.0000	0.000	0.000	0.00
2	0	0	4	0.0000	0.000	0.000	0.00
2	0	0	4	0.0000	0.000	0.000	0.00
2	0	0	4	0.0000	0.000	0.000	0.00
2	0	0	4	0.0000	0.000	0.000	0.00
2	0	0	4	0.0000	0.002	26.597	1001.59
2	0	0	4	0.0000	0.002	26.597	1001.59
2	0	0	4	0.0000	0.002	26.597	1001.59
2	0	0	4	0.0000	0.001	17.482	877.08
2	0	0	4	0.0000	0.001	17.482	877.08
2	0	0	4	0.0000	0.001	17.482	877.08
2	0	0	4	0.0000	0.001	17.482	877.08
2	0	0	4	0.0000	0.001	17.482	877.08
2	0	0	4	0.0000	0.001	17.482	877.08
2	0	0	4	0.0000	0.000	0.000	0.00
2	0	0	4	0.0000	0.000	0.000	0.00
2	0	0	4	0.0000	0.000	0.000	0.00
2	0	0	4	0.0000	0.000	0.000	0.00
2	0	0	4	0.0000	0.000	0.000	0.00
2	0	0	4	0.0000	0.000	0.000	0.00
2	0	0	4	0.0000	0.000	0.000	0.00
2	0	0	4	0.0000	0.000	0.000	0.00
2	0	0	4	0.0000	0.002	19.197	601.95
2	0	0	4	0.0000	0.002	19.693	734.10
2	0	0	4	0.0000	0.002	21.704	1365.86
2	0	0	4	0.0000	0.000	0.000	0.00
2	0	0	4	0.0000	0.000	0.000	0.00
2	0	0	4	0.0000	0.000	0.000	0.00
2	0	0	4	0.0000	0.000	0.000	0.00
2	0	0	4	0.0000	0.000	0.000	0.00
2	0	0	4	0.0000	0.000	0.000	0.00
2	0	0	4	0.0000	0.000	0.000	0.00
2	0	0	4	0.0000	0.000	0.000	0.00
2	0	0	4	0.0000	0.000	0.000	0.00
2	0	0	4	0.0000	0.000	0.000	0.00
2	0	0	4	0.0000	0.000	0.000	0.00
2	0	0	4	0.0000	0.000	0.000	0.00
2	0	0	4	0.0000	0.000	0.000	0.00
2	0	0	4	0.0000	0.000	0.000	0.00
2	0	0	4	0.0000	0.000	0.000	0.00
2	0	0	4	0.0000	0.000	0.000	0.00
2	0	0	4	0.0000	0.000	0.000	0.00
2	0	0	4	0.0000	0.000	0.000	0.00
2	0	0	4	0.0000	0.000	0.000	0.00
2	0	0	4	0.0000	0.000	0.000	0.00
2	0	0	4	0.0000	0.000	0.000	0.00
2	0	0	4	0.0000	0.000	0.000	0.00
2	0	0	4	0.0000	0.000	0.000	0.00
2	0	0	4	0.0000	0.000	0.000	0.00
2	0	0	4	0.0000	0.000	0.000	0.00
2	0	0	4	0.0000	0.000	0.000	0.00
2	0	0	4	0.0000	0.000	0.000	0.00
2	0	0	4	0.0000	0.000	0.000	0.00
2	0	0	4	0.0000	0.000	0.000	0.00
2	0	0	4	0.0000	0.000	0.000	0.00
2	0	0	4	0.0000	0.000	0.000	0.00
2	0	0	4	0.0000	0.002	19.478	676.95
2	0	0	4	0.0000	0.002	19.478	676.95
2	0	0	4	0.0000	0.002	19.478	676.95
2	0	0	4	0.0000	0.000	0.000	0.00
2	0	0	4	0.0000	0.000	0.000	0.00
2	0	0	4	0.0000	0.000	0.000	0.00
2	0	0	4	0.0000	0.002	17.172	1243.08
2	0	0	4	0.0000	0.002	17.172	1349.57
2	0	0	4	0.0000	0.000	0.000	0.00
2	0	0	4	0.0000	0.000	0.000	0.00
2	0	0	4	0.0000	0.000	0.000	0.00
2	0	0	4	0.0000	0.000	0.000	0.00
2	0	0	4	0.0000	0.001	16.730	666.30
2	0	0	4	0.0000	0.001	17.213	816.00
2	0	0	4	0.0000	0.001	17.213	816.00
2	0	0	4	0.0000	0.001	17.213	816.00
2	0	0	4	0.0000	0.001	17.350	858.49
2	0	0	4	0.0000	0.001	17.350	858.49
2	0	0	4	0.0000	0.001	17.350	858.49
2	0	0	4	0.0000	0.001	16.743	670.50
2	0	0	4	0.0000	0.002	29.085	864.49
2	0	0	4	0.0000	0.002	29.085	864.49
2	0	0	4	0.0000	0.002	29.085	864.49
2	0	0	4	0.0000	0.001	17.694	965.10
2	0	0	4	0.0000	0.001	17.694	965.10
2	0	0	4	0.0000	0.001	17.694	965.10
2	0	0	4	0.0000	0.001	18.220	1128.00
2	0	0	4	0.0000	0.002	17.172	236.04
2	0	0	4	0.0000	0.002	17.172	236.63
2	0	0	4	0.0000	0.002	17.172	236.20
2	0	0	4	0.0000	0.002	17.172	236.75
2	0	0	4	0.0000	0.002	17.172	236.75
2	0	0	4	0.0000	0.002	17.172	236.75
2	0	0	4	0.0000	0.002	17.172	236.75
2	0	0	4	0.0000	0.002	17.172	236.75
2	0	0	4	0.0000	0.002	17.172	236.75
2	0	0	4	0.0000	0.000	0.000	0.00
2	0	0	4	0.0000	0.002	28.724	797.70
2	0	0	4	0.0000	0.002	28.724	797.70
2	0	0	4	0.0000	0.002	27.928	650.40
2	0	0	4	0.0000	0.002	27.928	650.40
2	0	0	4	0.0000	0.002	27.928	650.40
2	0	0	4	0.0000	0.002	27.928	650.40
2	0	0	4	0.0000	0.002	28.200	700.80
2	0	0	4	0.0000	0.002	28.190	699.00
2	0	0	4	0.0000	0.000	0.000	0.00
2	0	0	4	0.0000	0.000	0.000	0.00
2	0	0	4	0.0000	0.001	17.473	896.66
2	0	0	4	0.0000	0.001	17.473	896.66
2	0	0	4	0.0000	0.001	17.473	896.66
2	0	0	4	0.0000	0.001	16.559	613.50
2	0	0	4	0.0000	0.000	0.000	0.00
2	0	0	4	0.0000	0.000	0.000	0.00
2	0	0	4	0.0000	0.000	0.000	0.00
2	0	0	4	0.0000	0.000	0.000	0.00
2	0	0	4	0.0000	0.001	16.879	712.50
2	0	0	4	0.0000	0.001	17.405	875.66
2	0	0	4	0.0000	0.001	16.632	636.00
2	0	0	4	0.0000	0.001	16.811	691.50
2	0	0	4	0.0000	0.001	16.566	615.60
2	0	0	4	0.0000	0.001	17.808	1000.50
2	0	0	4	0.0000	0.001	17.808	1000.50
2	0	0	4	0.0000	0.001	17.808	1000.50
2	0	0	4	0.0000	0.001	17.405	875.66
2	0	0	4	0.0000	0.001	17.405	875.66
2	0	0	4	0.0000	0.000	0.000	0.00
2	0	0	4	0.0000	0.000	0.000	0.00
2	0	0	4	0.0000	0.000	0.000	0.00
2	0	0	4	0.0000	0.001	15.962	607.20
2	0	0	4	0.0000	0.001	15.177	606.30
2	0	0	4	0.0000	0.001	15.186	609.60
2	0	0	4	0.0000	0.001	16.529	1062.70
2	0	0	4	0.0000	0.001	16.529	1062.70
2	0	0	4	0.0000	0.001	16.529	1062.70
2	0	0	4	0.0000	0.001	16.529	1062.70
2	0	0	4	0.0000	0.001	16.529	1062.70
2	0	0	4	0.0000	0.001	16.529	1062.70
2	0	0	4	0.0000	0.001	16.996	727.05
2	0	0	4	0.0000	0.001	17.435	1076.03
2	0	0	4	0.0000	0.001	17.422	1076.03
2	0	0	4	0.0000	0.001	15.989	615.90
2	0	0	4	0.0000	0.001	15.948	602.70
2	0	0	4	0.0000	0.001	17.987	1223.61
2	0	0	4	0.0000	0.001	17.987	1223.61
2	0	0	4	0.0000	0.001	17.987	1223.61
2	0	0	4	0.0000	0.000	0.000	0.00
...
];

%% branch data
mpc.branch = [
1001	1064	0.005240	0.035800	0.00609	221.00	0.00	0.00	0.00000	0.000	1	0.00	0.00	67.94	10.51	-67.69	-9.36	0	0	0	0
1001	1064	0.005240	0.035800	0.00609	221.00	0.00	0.00	0.00000	0.000	1	0.00	0.00	67.94	10.51	-67.69	-9.36	0	0	0	0
1001	1071	0.004350	0.028080	0.00536	221.00	0.00	0.00	0.00000	0.000	1	0.00	0.00	-78.33	-13.45	78.61	14.74	0	0	0	0
1001	1071	0.004350	0.028080	0.00536	221.00	0.00	0.00	0.00000	0.000	1	0.00	0.00	-78.33	-13.45	78.61	14.74	0	0	0	0
1002	1007	0.077760	0.466930	0.06336	98.00	0.00	0.00	0.00000	0.000	1	0.00	0.00	1.51	-5.13	-1.50	-1.52	0	0	0	0
1010	1002	0.055520	0.135700	0.01777	98.00	0.00	0.00	0.00000	0.000	1	0.00	0.00	17.07	-2.26	-16.92	0.77	0	0	0	0
1004	1003	0.004500	0.115820	0.00000	250.00	0.00	0.00	1.00000	0.000	1	0.00	0.00	-24.22	6.88	24.25	-6.17	0	0	0	0
1022	1003	0.004850	0.020120	0.00341	221.00	0.00	0.00	0.00000	0.000	1	0.00	0.00	63.82	-4.05	-63.63	4.50	0	0	0	0
1055	1003	0.015740	0.037820	0.00513	98.00	0.00	0.00	0.00000	0.000	1	0.00	0.00	-39.15	-1.62	39.38	1.67	0	0	0	0
1004	3133	0.004200	0.030000	0.05500	523.00	0.00	0.00	0.00000	0.000	1	0.00	0.00	182.47	-37.26	-181.07	41.48	0	0	0	0
1006	1005	0.006020	0.147070	0.00000	42.00	0.00	0.00	1.00000	0.000	1	0.00	0.00	25.73	-4.94	-25.69	5.94	0	0	0	0
1025	1005	0.018420	0.082100	0.01204	149.00	0.00	0.00	0.00000	0.000	1	0.00	0.00	43.47	4.80	-43.13	-4.53	0	0	0	0
1005	1061	0.005990	0.024840	0.00422	221.00	0.00	0.00	0.00000	0.000	1	0.00	0.00	77.15	-25.36	-76.76	26.53	0	0	0	0
1067	1005	0.017110	0.041810	0.00548	98.00	0.00	0.00	0.00000	0.000	1	0.00	0.00	8.44	-24.24	-8.33	23.95	0	0	0	0
1007	1015	0.062240	0.373750	0.05072	98.00	0.00	0.00	0.00000	0.000	1	0.00	0.00	-1.60	-2.95	1.60	-2.43	0	0	0	0
1031	1007	0.048030	0.274340	0.04123	98.00	0.00	0.00	0.00000	0.000	1	0.00	0.00	3.93	-6.88	-3.91	2.66	0	0	0	0
1009	1008	0.004550	0.094710	0.00000	120.00	0.00	0.00	1.00000	0.000	1	0.00	0.00	61.87	-11.88	-61.69	15.53	0	0	0	0
1008	1032	0.045010	0.110020	0.01441	98.00	0.00	0.00	0.00000	0.000	1	0.00	0.00	60.17	-7.00	-58.60	9.34	0	0	0	0
1008	1069	0.008300	0.036280	0.00553	149.00	0.00	0.00	0.00000	0.000	1	0.00	0.00	1.52	-8.53	-1.52	7.97	0	0	0	0
1011	1010	0.007210	0.324600	0.00000	46.00	0.00	0.00	1.00000	0.000	1	0.00	0.00	10.00	0.00	-9.99	0.31	0	0	0	0
1010	1015	0.047030	0.282430	0.03833	98.00	0.00	0.00	0.00000	0.000	1	0.00	0.00	9.15	-4.14	-9.11	0.30	0	0	0	0
1010	1030	0.061600	0.369900	0.05020	98.00	0.00	0.00	0.00000	0.000	1	0.00	0.00	-16.23	3.85	16.40	-8.05	0	0	0	0
1012	1087	0.049340	0.204690	0.03473	149.00	0.00	0.00	0.00000	0.000	1	0.00	0.00	-69.90	16.80	72.37	-10.21	0	0	0	0
3051	1012	0.057100	0.249770	0.03804	149.00	0.00	0.00	0.00000	0.000	1	0.00	0.00	-64.46	14.54	66.92	-7.71	0	0	0	0
1013	1031	0.045090	0.270780	0.03675	98.00	0.00	0.00	0.00000	0.000	1	0.00	0.00	13.26	-7.49	-13.17	4.26	0	0	0	0
1047	1013	0.009470	0.061170	0.01167	221.00	0.00	0.00	0.00000	0.000	1	0.00	0.00	58.51	-10.32	-58.18	11.25	0	0	0	0
1086	1013	0.079000	0.193110	0.02529	98.00	0.00	0.00	0.00000	0.000	1	0.00	0.00	-15.41	10.13	15.69	-12.04	0	0	0	0
1014	1047	0.035660	0.147940	0.02510	149.00	0.00	0.00	0.00000	0.000	1	0.00	0.00	19.82	-0.65	-19.69	-1.35	0	0	0	0
1014	1083	0.041050	0.182930	0.02682	149.00	0.00	0.00	0.00000	0.000	1	0.00	0.00	-22.04	0.02	22.24	-1.95	0	0	0	0
1016	1034	0.018280	0.109760	0.01489	98.00	0.00	0.00	0.00000	0.000	1	0.00	0.00	-14.05	13.20	14.12	-14.31	0	0	0	0
1068	1016	0.027730	0.158370	0.02380	98.00	0.00	0.00	0.00000	0.000	1	0.00	0.00	-11.04	-18.83	11.16	17.14	0	0	0	0
1018	1017	0.032270	0.078870	0.01033	98.00	0.00	0.00	0.00000	0.000	1	0.00	0.00	27.28	-2.15	-27.04	1.73	0	0	0	0
1017	1029	0.032440	0.141880	0.02161	149.00	0.00	0.00	0.00000	0.000	1	0.00	0.00	39.00	-24.87	-38.31	25.75	0	0	0	0
1037	1017	0.007520	0.033520	0.00491	221.00	0.00	0.00	0.00000	0.000	1	0.00	0.00	-58.96	-3.95	59.24	4.69	0	0	0	0
1047	1017	0.036000	0.156000	0.02400	150.00	0.00	0.00	0.00000	0.000	1	0.00	0.00	92.58	-2.48	-89.54	13.25	0	0	0	0
1024	1018	0.010940	0.065720	0.00892	98.00	0.00	0.00	0.00000	0.000	1	0.00	0.00	27.43	-2.51	-27.35	2.13	0	0	0	0
1019	1040	0.049780	0.206510	0.03504	149.00	0.00	0.00	0.00000	0.000	1	0.00	0.00	-14.79	7.27	14.93	-10.18	0	0	0	0
1019	1045	0.015220	0.037200	0.00487	221.00	0.00	0.00	0.00000	0.000	1	0.00	0.00	106.12	16.59	-104.39	-12.84	0	0	0	0
1019	1071	0.004400	0.028000	0.00540	225.00	0.00	0.00	0.00000	0.000	1	0.00	0.00	-44.17	51.97	44.37	-51.22	0	0	0	0
1071	1019	0.004400	0.028000	0.00540	225.00	0.00	0.00	0.00000	0.000	1	0.00	0.00	44.37	-51.22	-44.17	51.97	0	0	0	0
1019	1084	0.030000	0.160000	0.02500	220.00	0.00	0.00	0.00000	0.000	1	0.00	0.00	-64.78	-0.04	66.02	4.05	0	0	0	0
1021	1020	0.003270	0.078120	0.00000	250.00	0.00	0.00	1.00000	0.000	1	0.00	0.00	149.63	-28.73	-148.88	46.74	0	0	0	0
1025	1020	0.008280	0.034340	0.00583	149.00	0.00	0.00	0.00000	0.000	1	0.00	0.00	49.32	-27.35	-49.07	27.77	0	0	0	0
1084	1020	0.010560	0.063370	0.00860	221.00	0.00	0.00	0.00000	0.000	1	0.00	0.00	-33.71	10.10	33.84	-10.27	0	0	0	0
1020	3059	0.018900	0.060000	0.00600	300.00	0.00	0.00	0.00000	0.000	1	0.00	0.00	62.41	3.72	-61.71	-2.12	0	0	0	0
1020	3130	0.009960	0.069380	0.01134	221.00	0.00	0.00	0.00000	0.000	1	0.00	0.00	101.70	13.06	-100.71	-7.32	0	0	0	0
1023	1022	0.005350	0.117330	0.00000	250.00	0.00	0.00	1.00000	0.000	1	0.00	0.00	135.00	0.04	-134.04	20.92	0	0	0	0
1022	1028	0.014330	0.092530	0.01765	221.00	0.00	0.00	0.00000	0.000	1	0.00	0.00	35.11	-8.43	-34.93	7.77	0	0	0	0
1022	1028	0.014330	0.092530	0.01765	221.00	0.00	0.00	0.00000	0.000	1	0.00	0.00	35.11	-8.43	-34.93	7.77	0	0	0	0
1024	1090	0.014140	0.063030	0.00924	149.00	0.00	0.00	0.00000	0.000	1	0.00	0.00	-90.47	-15.35	91.67	19.75	0	0	0	0
1026	1025	0.004200	0.180460	0.00000	200.00	0.00	0.00	1.00000	0.000	1	0.00	0.00	93.15	-6.81	-92.78	22.55	0	0	0	0
1027	1045	0.025050	0.109570	0.01669	221.00	0.00	0.00	0.00000	0.000	1	0.00	0.00	-17.11	30.68	17.42	-30.98	0	0	0	0
1056	1027	0.031210	0.076300	0.00999	250.00	0.00	0.00	0.00000	0.000	1	0.00	0.00	86.34	-13.60	-84.10	18.03	0	0	0	0
1028	3109	0.004280	0.018750	0.00286	250.00	0.00	0.00	0.00000	0.000	1	0.00	0.00	59.85	-18.38	-59.69	18.79	0	0	0	0
1029	1056	0.020540	0.117330	0.01763	221.00	0.00	0.00	0.00000	0.000	1	0.00	0.00	-44.88	-8.44	45.30	8.98	0	0	0	0
1030	1038	0.074040	0.422850	0.06354	98.00	0.00	0.00	0.00000	0.000	1	0.00	0.00	-24.16	1.72	24.59	-5.83	0	0	0	0
1083	1030	0.065370	0.373340	0.05610	98.00	0.00	0.00	0.00000	0.000	1	0.00	0.00	17.05	-4.15	-16.87	-0.65	0	0	0	0
1033	1032	0.002830	0.067580	0.00000	170.00	0.00	0.00	1.00000	0.000	1	0.00	0.00	-119.36	41.49	119.79	-31.29	0	0	0	0
1032	1036	0.019560	0.117460	0.01594	98.00	0.00	0.00	0.00000	0.000	1	0.00	0.00	6.45	3.66	-6.44	-5.20	0	0	0	0
1038	1032	0.045000	0.110000	0.01500	155.00	0.00	0.00	0.00000	0.000	1	0.00	0.00	69.82	-14.48	-67.64	18.29	0	0	0	0
1033	1081	0.003000	0.031000	0.05900	548.00	0.00	0.00	0.00000	0.000	1	0.00	0.00	131.38	-18.58	-130.88	17.46	0	0	0	0
1033	3050	0.013900	0.136000	0.26200	647.00	0.00	0.00	0.00000	0.000	1	0.00	0.00	196.48	-10.06	-191.41	31.97	0	0	0	0
1035	1034	0.004380	0.084960	0.00000	130.00	0.00	0.00	1.00000	0.000	1	0.00	0.00	67.50	-9.36	-67.30	13.30	0	0	0	0
1067	1034	0.007950	0.047710	0.00647	98.00	0.00	0.00	0.00000	0.000	1	0.00	0.00	-52.96	-0.33	53.18	1.01	0	0	0	0
1088	1036	0.020650	0.117930	0.01772	98.00	0.00	0.00	0.00000	0.000	1	0.00	0.00	7.17	-3.05	-7.16	1.35	0	0	0	0
1037	1071	0.006690	0.043190	0.00824	300.00	0.00	0.00	0.00000	0.000	1	0.00	0.00	-43.27	-25.02	43.45	25.32	0	0	0	0
1039	1038	0.002010	0.085910	0.00000	200.00	0.00	0.00	1.00000	0.000	1	0.00	0.00	110.63	-21.01	-110.38	31.90	0	0	0	0
1082	1038	0.011150	0.049690	0.00729	149.00	0.00	0.00	0.00000	0.000	1	0.00	0.00	64.37	-6.81	-63.93	8.03	0	0	0	0
1083	1038	0.010000	0.050000	0.00700	221.00	0.00	0.00	0.00000	0.000	1	0.00	0.00	-79.24	22.13	79.88	-19.62	0	0	0	0
1040	1090	0.029910	0.133290	0.01955	149.00	0.00	0.00	0.00000	0.000	1	0.00	0.00	-59.29	-2.39	60.35	5.12	0	0	0	0
1042	1041	0.004190	0.111230	0.00000	145.00	0.00	0.00	1.00000	0.000	1	0.00	0.00	0.00	0.00	0.00	0.00	0	0	0	0
1043	1041	0.003000	0.128440	0.00000	95.00	0.00	0.00	1.00000	0.000	1	0.00	0.00	44.10	-3.76	-44.04	6.28	0	0	0	0
1065	1041	0.003860	0.022030	0.00331	98.00	0.00	0.00	0.00000	0.000	1	0.00	0.00	13.13	10.51	-13.12	-10.78	0	0	0	0
1041	1067	0.003930	0.017220	0.00262	149.00	0.00	0.00	0.00000	0.000	1	0.00	0.00	57.16	4.50	-57.03	-4.21	0	0	0	0
1044	3019	0.038570	0.171920	0.02521	149.00	0.00	0.00	0.00000	0.000	1	0.00	0.00	46.54	-17.91	-45.63	19.33	0	0	0	0
3130	1044	0.027310	0.190290	0.03111	221.00	0.00	0.00	0.00000	0.000	1	0.00	0.00	62.28	-9.60	-61.22	13.75	0	0	0	0
1045	1064	0.005450	0.037940	0.00620	221.00	0.00	0.00	0.00000	0.000	1	0.00	0.00	-11.59	15.90	11.61	-16.34	0	0	0	0
1087	1046	0.032620	0.142690	0.02173	149.00	0.00	0.00	0.00000	0.000	1	0.00	0.00	79.54	-13.58	-77.54	20.00	0	0	0	0
1046	3009	0.056540	0.234540	0.03980	149.00	0.00	0.00	0.00000	0.000	1	0.00	0.00	66.46	-10.45	-64.06	16.21	0	0	0	0
1048	1047	0.003350	0.065760	0.00000	390.00	0.00	0.00	1.00000	0.000	1	0.00	0.00	0.00	0.00	0.00	0.00	0	0	0	0
1049	1047	0.002760	0.117830	0.00000	390.00	0.00	0.00	1.00000	0.000	1	0.00	0.00	0.00	0.00	0.00	0.00	0	0	0	0
1050	1047	0.003130	0.099410	0.00000	124.00	0.00	0.00	1.00000	0.000	1	0.00	0.00	89.40	-6.97	-89.15	14.96	0	0	0	0
1051	1047	0.005600	0.128300	0.00000	117.00	0.00	0.00	1.00000	0.000	1	0.00	0.00	89.40	-5.07	-88.95	15.36	0	0	0	0
1052	1047	0.003680	0.082600	0.00000	110.00	0.00	0.00	1.00000	0.000	1	0.00	0.00	89.40	-9.92	-89.10	16.60	0	0	0	0
1053	1047	0.002300	0.088080	0.00000	250.00	0.00	0.00	1.00000	0.000	1	0.00	0.00	-78.86	25.16	79.01	-19.42	0	0	0	0
1047	1085	0.009470	0.061170	0.01167	221.00	0.00	0.00	0.00000	0.000	1	0.00	0.00	56.79	-13.35	-56.48	14.20	0	0	0	0
1053	1081	0.003000	0.030000	0.06000	548.00	0.00	0.00	0.00000	0.000	1	0.00	0.00	78.86	-25.16	-78.67	20.73	0	0	0	0
1054	1056	0.022020	0.096330	0.01467	149.00	0.00	0.00	0.00000	0.000	1	0.00	0.00	-21.15	-12.64	21.28	11.66	0	0	0	0
1089	1054	0.087370	0.213570	0.02796	98.00	0.00	0.00	0.00000	0.000	1	0.00	0.00	-6.05	-10.92	6.16	8.39	0	0	0	0
1055	1089	0.049820	0.121790	0.01595	98.00	0.00	0.00	0.00000	0.000	1	0.00	0.00	35.17	0.49	-34.56	-0.59	0	0	0	0
1057	1056	0.003150	0.131200	0.00000	160.00	0.00	0.00	1.00000	0.000	1	0.00	0.00	0.00	0.00	0.00	0.00	0	0	0	0
1056	1061	0.022670	0.129460	0.01945	150.00	0.00	0.00	0.00000	0.000	1	0.00	0.00	-61.85	26.46	62.83	-22.90	0	0	0	0
1056	1065	0.022690	0.129620	0.01948	250.00	0.00	0.00	0.00000	0.000	1	0.00	0.00	-91.06	38.44	93.17	-28.43	0	0	0	0
1059	1058	0.026550	0.461870	0.00000	33.00	0.00	0.00	1.00000	0.000	1	0.00	0.00	0.00	0.00	0.00	0.00	0	0	0	0
1060	1058	0.008940	0.388540	0.00000	27.00	0.00	0.00	1.00000	0.000	1	0.00	0.00	0.00	0.00	0.00	0.00	0	0	0	0
1069	1058	0.007400	0.051550	0.00843	221.00	0.00	0.00	0.00000	0.000	1	0.00	0.00	84.55	-7.74	-84.05	10.37	0	0	0	0
1069	1058	0.007400	0.051550	0.00843	221.00	0.00	0.00	0.00000	0.000	1	0.00	0.00	84.55	-7.74	-84.05	10.37	0	0	0	0
1058	1087	0.015730	0.109560	0.01791	221.00	0.00	0.00	0.00000	0.000	1	0.00	0.00	77.32	-12.28	-76.41	16.74	0	0	0	0
1058	1087	0.015730	0.109560	0.01791	221.00	0.00	0.00	0.00000	0.000	1	0.00	0.00	77.32	-12.28	-76.41	16.74	0	0	0	0
1062	1061	0.016300	0.317870	0.00000	29.00	0.00	0.00	1.00000	0.000	1	0.00	0.00	0.00	0.00	0.00	0.00	0	0	0	0
1063	1061	0.005670	0.104090	0.00000	260.00	0.00	0.00	1.00000	0.000	1	0.00	0.00	0.00	0.00	0.00	0.00	0	0	0	0
1061	3042	0.054000	0.180000	0.02800	221.00	0.00	0.00	0.00000	0.000	1	0.00	0.00	13.93	-3.62	-13.83	1.11	0	0	0	0
1066	1065	0.005080	0.123150	0.00000	200.00	0.00	0.00	1.00000	0.000	1	0.00	0.00	106.88	-3.83	-106.30	17.92	0	0	0	0
1088	1068	0.029620	0.169210	0.02543	98.00	0.00	0.00	0.00000	0.000	1	0.00	0.00	49.08	-0.43	-48.37	2.00	0	0	0	0
1070	1069	0.002970	0.070000	0.00000	220.00	0.00	0.00	1.00000	0.000	1	0.00	0.00	120.38	17.67	-119.97	-8.09	0	0	0	0
1082	1069	0.021370	0.095200	0.01396	149.00	0.00	0.00	0.00000	0.000	1	0.00	0.00	48.13	-14.79	-47.62	15.61	0	0	0	0
1072	1071	0.005290	0.085510	0.00000	240.00	0.00	0.00	1.00000	0.000	1	0.00	0.00	192.13	20.93	-190.19	10.38	0	0	0	0
1073	1071	0.004990	0.142540	0.00000	240.00	0.00	0.00	1.00000	0.000	1	0.00	0.00	192.13	29.98	-190.28	22.86	0	0	0	0
1074	1071	0.005750	0.124530	0.00000	240.00	0.00	0.00	1.00000	0.000	1	0.00	0.00	192.13	25.86	-190.01	20.02	0	0	0	0
...